Input file: test1.ped;
Output file: saida-test1.txt;
Covariables: 5;
Markers: 5;
Not Available: [.];
Separated: [ ].
Comand line ok.
Num_col_fixo = 21
Arquivo aberto
Malloc matriz markers Ok.
rs_markers[ 0 ] = rs1
rs_markers[ 1 ] = rs2
rs_markers[ 2 ] = rs3
rs_markers[ 3 ] = rs4
rs_markers[ 4 ] = rs5
Malloc matriz input Ok.
Malloc matriz ponteiro = 0xd11480
To nesse while
I FINISHED TO READ THE ENTRY, with 518 individuals
rs_markers[ 0 ]: major: 1, minor 3.
rs_markers[ 1 ]: major: 1, minor 3.
rs_markers[ 2 ]: major: 3, minor 4.
rs_markers[ 3 ]: major: 3, minor 1.
rs_markers[ 4 ]: major: 1, minor 3.
ordenei
5 2 5 0 0 1 1 0 0 0 0 0 1 3 3 3 3 3 3 1 1
5 6 0 0 2 1 0 0 0 0 0 1 1 1 1 3 4 1 3 1 1
5 7 5 6 1 2 4 1 2 1 2 1 1 1 3 3 4 3 3 1 1
6 8 0 0 1 1 0 0 0 0 0 1 1 1 3 3 4 3 3 1 1
6 9 0 0 2 1 0 0 0 0 0 1 1 1 3 3 3 1 3 1 1
6 10 8 9 1 2 37 4 2 2 2 1 1 3 3 3 3 3 3 1 1
7 11 0 0 1 1 0 0 0 0 0 1 1 1 3 3 4 3 3 1 1
7 12 0 0 2 1 0 0 0 0 0 1 3 1 1 3 4 3 3 1 3
7 13 11 12 2 2 33 3 1 1 2 1 1 1 1 4 4 3 3 1 1
8 14 0 0 1 1 0 0 0 0 0 1 3 1 3 3 4 3 3 1 1
8 15 0 0 2 1 0 0 0 0 0 1 3 1 3 3 3 3 3 1 3
8 16 14 15 1 2 5 1 2 1 2 1 3 3 3 3 3 3 3 1 1
9 17 0 0 1 1 0 0 0 0 0 1 3 1 3 3 3 1 3 1 1
9 18 0 0 2 1 0 0 0 0 0 1 1 1 1 3 4 1 3 1 1
9 19 17 18 1 2 5 4 2 1 2 1 1 1 3 3 4 3 3 1 1
11 24 0 0 1 1 0 0 0 0 0 1 1 1 3 3 4 3 3 1 1
11 25 0 0 2 1 0 0 0 0 0 3 3 1 1 3 4 1 3 1 1
11 26 24 25 1 2 13 1 2 2 2 1 3 1 3 3 4 3 3 1 1
14 33 0 0 1 1 0 0 0 0 0 1 1 1 3 3 4 3 3 1 1
14 34 0 0 2 1 0 0 0 0 0 3 3 3 3 3 3 3 3 1 1
14 35 33 34 1 2 39 4 2 2 2 1 3 1 3 3 4 3 3 1 1
15 36 0 0 1 1 0 0 0 0 0 1 1 1 1 3 4 1 3 1 1
15 37 0 0 2 1 0 0 0 0 0 3 3 1 1 3 4 1 3 1 1
15 38 36 37 2 2 9 3 1 1 1 1 3 1 1 4 4 3 3 1 1
18 44 45 46 2 2 32 3 1 1 1 1 1 1 1 3 4 3 3 1 3
18 45 0 0 1 1 0 0 0 0 0 1 3 1 3 3 4 3 3 1 1
18 46 0 0 2 1 0 0 0 0 0 1 3 1 1 3 3 1 3 1 3
19 47 48 49 2 2 19 3 1 2 2 1 1 1 1 4 4 3 3 1 1
19 48 0 0 1 1 0 0 0 0 0 1 1 1 1 4 4 3 3 1 1
19 49 0 0 2 1 0 0 0 0 0 1 1 1 3 3 4 3 3 1 1
21 51 52 53 2 2 14 3 1 1 2 1 1 1 3 3 4 3 3 1 1
21 52 0 0 1 1 0 0 0 0 0 1 1 1 3 3 4 3 3 1 1
21 53 0 0 2 1 0 0 0 0 0 1 1 1 3 3 3 1 3 1 1
22 54 0 0 1 1 0 0 0 0 0 1 1 1 3 3 3 1 3 1 1
22 55 0 0 2 1 0 0 0 0 0 1 3 1 1 3 4 1 3 1 1
22 56 54 55 2 2 3 1 2 2 2 1 1 1 1 3 4 1 3 1 1
25 59 60 61 2 2 41 3 1 2 2 1 1 1 3 3 4 3 3 1 1
25 60 0 0 1 1 0 0 0 0 0 1 1 1 1 3 4 3 3 1 3
25 61 0 0 2 1 0 0 0 0 0 1 1 1 3 3 4 3 3 1 1
27 63 64 65 2 2 36 2 2 1 2 1 3 1 3 3 3 3 3 1 1
27 64 0 0 1 1 0 0 0 0 0 1 3 3 3 3 3 3 3 1 1
27 65 0 0 2 1 0 0 0 0 0 1 1 1 3 3 3 3 3 1 1
29 67 68 69 2 2 30 3 1 2 2 1 1 1 3 3 4 3 3 1 1
29 68 0 0 1 1 0 0 0 0 0 1 1 3 3 3 3 3 3 1 1
29 69 0 0 2 1 0 0 0 0 0 1 3 1 1 4 4 3 3 1 1
31 71 0 0 1 1 0 0 0 0 0 1 3 1 3 3 3 3 3 1 3
31 72 0 0 2 1 0 0 0 0 0 1 3 1 1 4 4 3 3 1 1
31 73 71 72 2 2 30 3 1 1 1 1 3 1 1 3 4 3 3 1 3
35 80 81 82 2 2 21 1 2 1 2 1 3 3 3 3 3 3 3 1 1
35 81 0 0 1 1 0 0 0 0 0 1 3 3 3 3 3 3 3 1 1
35 82 0 0 2 1 0 0 0 0 0 1 3 3 3 3 3 3 3 1 1
36 83 85 84 2 2 29 3 1 1 2 1 1 1 3 3 4 3 3 1 1
36 84 0 0 2 1 0 0 0 0 0 1 3 1 1 3 4 1 3 1 1
36 85 0 0 1 1 0 0 0 0 0 1 1 1 3 3 4 3 3 1 1
41 90 0 0 1 1 0 0 0 0 0 1 1 1 3 3 4 3 3 1 1
41 91 0 0 2 1 0 0 0 0 0 1 1 3 3 3 3 3 3 1 1
41 92 90 91 1 2 11 2 1 2 2 1 1 1 3 3 4 3 3 1 1
43 94 0 0 1 1 0 0 0 0 0 1 1 1 1 4 4 3 3 1 1
43 95 0 0 2 1 0 0 0 0 0 1 3 1 3 3 4 3 3 1 1
43 96 94 95 1 2 14 1 2 2 0 1 1 1 3 3 4 3 3 1 1
44 97 99 100 1 2 28 3 2 1 1 1 1 3 3 3 3 3 3 1 1
44 98 99 100 1 2 27 1 2 1 1 1 1 3 3 3 3 3 3 1 1
44 99 0 0 1 1 0 0 0 0 0 1 1 3 3 3 3 3 3 1 1
44 100 0 0 2 1 0 0 0 0 0 1 1 1 3 3 3 1 3 1 1
49 105 107 106 2 2 34 3 2 1 2 0 0 1 3 3 3 1 3 1 1
49 106 0 0 2 1 0 0 0 0 0 1 1 1 1 3 3 1 3 1 3
49 107 0 0 1 1 0 0 0 0 0 1 1 0 0 0 0 3 3 1 1
50 108 0 0 1 1 0 0 0 0 0 1 3 1 3 3 3 3 3 1 3
50 109 0 0 2 1 0 0 0 0 0 1 1 1 1 3 4 1 3 1 1
50 110 108 109 2 2 12 3 1 1 2 1 3 1 1 3 3 1 3 1 3
51 111 112 113 1 2 3 1 2 1 2 3 3 1 3 3 3 1 3 1 1
51 112 0 0 1 1 0 0 0 0 0 3 3 1 3 3 3 3 3 1 3
51 113 0 0 2 1 0 0 0 0 0 3 3 1 1 3 3 1 1 1 1
52 114 0 0 1 1 0 0 0 0 0 1 1 1 3 3 3 1 3 1 1
52 115 0 0 2 1 0 0 0 0 0 1 3 1 3 3 3 1 3 1 1
52 116 114 115 1 2 30 3 2 1 2 1 1 1 3 3 3 1 3 1 1
53 117 0 0 1 1 0 0 0 0 0 1 1 1 1 3 4 1 3 1 1
53 118 0 0 2 1 0 0 0 0 0 1 1 1 3 3 3 1 3 1 1
53 119 117 118 2 2 15 1 2 2 2 1 1 1 1 3 4 1 3 1 1
54 120 121 122 2 2 31 3 1 1 2 3 3 1 3 3 4 3 3 1 1
54 121 0 0 1 1 0 0 0 0 0 1 3 1 3 3 4 3 3 1 1
54 122 0 0 2 1 0 0 0 0 0 1 3 1 1 3 4 1 3 1 1
56 124 125 126 2 2 20 3 1 2 2 1 1 1 1 3 4 3 3 1 3
56 125 0 0 1 1 0 0 0 0 0 1 1 1 1 3 4 3 3 1 3
56 126 0 0 2 1 0 0 0 0 0 1 1 1 1 4 4 3 3 1 1
58 130 0 0 1 1 0 0 0 0 0 1 1 1 3 3 4 3 3 1 1
58 131 0 0 2 1 0 0 0 0 0 1 3 1 3 3 4 0 0 1 1
58 132 130 131 2 2 21 1 2 2 1 1 3 1 3 3 4 3 3 1 1
58 133 130 131 1 2 18 2 0 2 1 1 1 1 3 3 4 3 3 1 1
58 134 130 131 1 2 30 3 0 2 1 1 3 1 3 3 4 3 3 1 1
60 136 0 0 1 1 0 0 0 0 0 3 3 1 1 3 4 1 3 1 1
60 137 0 0 2 1 0 0 0 0 0 1 1 1 3 3 4 0 0 1 1
60 138 136 137 2 2 23 3 1 1 1 1 3 1 3 3 3 1 3 1 1
60 139 136 137 2 2 12 4 2 1 1 1 3 1 1 3 4 1 3 1 1
62 141 142 143 2 2 26 3 1 2 2 1 3 1 1 4 4 3 3 1 1
62 142 0 0 1 1 0 0 0 0 0 1 1 1 1 4 4 3 3 1 1
62 143 0 0 2 1 0 0 0 0 0 1 3 1 1 4 4 3 3 1 1
63 144 0 0 1 1 0 0 0 0 0 0 0 0 0 0 0 3 3 1 1
63 145 0 0 2 1 0 0 0 0 0 1 3 1 1 4 4 3 3 1 1
63 146 144 145 1 2 12 3 2 2 2 1 3 1 1 4 4 3 3 1 1
66 153 0 0 2 1 0 0 0 0 0 1 3 1 1 3 3 3 3 3 3
66 154 0 0 1 1 0 0 0 0 0 3 3 3 3 3 3 3 3 1 1
66 155 154 153 1 2 4 1 2 2 2 3 3 1 3 3 3 3 3 1 3
70 163 0 0 1 1 0 0 0 0 0 1 1 1 3 3 4 3 3 1 1
70 164 0 0 2 1 0 0 0 0 0 1 1 1 3 3 4 3 3 1 1
70 165 163 164 1 2 19 4 2 2 2 1 1 1 3 3 4 3 3 1 1
73 168 0 0 1 2 40 3 2 2 1 3 3 1 3 3 3 1 3 1 1
73 169 0 0 2 1 0 0 0 0 0 1 3 1 3 3 4 3 3 1 1
73 170 168 169 2 2 23 3 2 2 1 3 3 1 3 3 3 1 3 1 1
74 171 0 0 1 1 0 0 0 0 0 0 0 0 0 0 0 3 3 1 3
74 172 0 0 2 1 0 0 0 0 0 1 3 1 1 3 4 1 3 1 1
74 173 171 172 1 2 11 3 2 2 2 1 3 1 1 4 4 3 3 1 1
75 174 0 0 1 1 0 0 0 0 0 1 3 1 1 4 4 3 3 1 1
75 175 0 0 2 1 0 0 0 0 0 1 1 1 1 4 4 3 3 1 1
75 176 174 175 2 2 23 3 2 1 2 1 1 1 1 4 4 3 3 1 1
76 177 0 0 1 1 0 0 0 0 0 1 1 1 1 3 4 1 3 1 1
76 178 0 0 2 1 0 0 0 0 0 1 1 1 3 3 3 1 3 1 1
76 179 177 178 2 2 6 3 2 1 2 1 1 1 3 3 3 1 3 1 1
77 180 0 0 1 1 0 0 0 0 0 1 1 1 3 3 4 3 3 1 1
77 181 0 0 2 1 0 0 0 0 0 1 1 1 3 3 4 3 3 1 1
77 182 180 181 2 2 21 2 1 2 2 1 1 1 3 3 4 3 3 1 1
78 183 0 0 1 1 0 0 0 0 0 1 3 1 1 4 4 3 3 1 1
78 184 0 0 2 2 56 2 2 1 1 1 1 1 3 3 4 3 3 1 1
78 185 183 184 2 2 31 3 1 1 1 1 3 1 3 3 4 3 3 1 1
79 186 0 0 1 1 0 0 0 0 0 1 1 1 3 3 3 1 3 1 1
79 187 0 0 2 1 0 0 0 0 0 1 1 1 3 3 4 3 3 1 1
79 188 186 187 2 2 5 1 2 2 1 1 1 1 3 3 4 3 3 1 1
80 189 0 0 1 1 0 0 0 0 0 1 1 1 3 3 4 3 3 1 1
80 190 0 0 2 1 0 0 0 0 0 1 1 1 1 3 3 1 3 1 1
80 191 189 190 1 2 34 3 2 2 2 0 0 0 0 0 0 0 0 0 0
87 202 0 0 1 1 0 0 0 0 0 3 3 1 3 3 3 3 3 1 3
87 203 0 0 2 1 0 0 0 0 0 1 3 1 1 3 4 1 3 1 1
87 204 202 203 2 2 32 3 1 2 1 3 3 1 3 3 3 1 3 1 1
200087 204 0 0 2 2 32 3 1 2 1 0 0 0 0 0 0 1 3 0 0
200087 205 0 0 1 1 0 0 0 0 0 0 0 0 0 0 0 0 0 0 0
200087 206 205 204 1 2 7 2 1 2 1 0 0 0 0 0 0 0 0 0 0
87 207 202 203 1 2 28 2 0 2 1 3 3 1 3 3 3 1 3 1 1
87 208 202 203 2 2 10 3 0 2 1 1 3 1 3 3 3 1 3 1 1
89 212 0 0 1 1 0 0 0 0 0 1 1 1 1 3 3 3 3 1 1
89 213 0 0 2 1 0 0 0 0 0 1 3 1 3 3 4 3 3 1 1
89 214 212 213 2 2 41 4 1 1 0 1 3 1 1 3 4 3 3 1 1
92 217 0 0 1 1 0 0 0 0 0 1 1 1 3 3 4 3 3 1 1
92 218 0 0 2 1 0 0 0 0 0 1 3 1 1 3 3 1 3 1 3
92 219 217 218 2 2 7 3 1 1 2 1 1 1 1 3 4 3 3 1 3
96 227 0 0 1 1 0 0 0 0 0 1 3 3 3 3 3 3 3 1 1
96 228 0 0 2 1 0 0 0 0 0 1 1 3 3 3 3 3 3 1 1
96 229 227 228 1 2 38 2 2 2 2 1 1 3 3 3 3 3 3 1 1
104 243 0 0 1 1 0 0 0 0 0 1 1 1 1 3 4 1 3 1 1
104 244 0 0 2 1 0 0 0 0 0 1 1 1 1 4 4 3 3 1 1
104 245 243 244 1 2 8 3 1 2 2 1 1 1 1 4 4 3 3 1 1
106 249 0 0 1 1 0 0 0 0 0 1 1 1 3 3 4 3 3 1 1
106 250 0 0 2 1 0 0 0 0 0 1 1 1 3 3 3 1 3 1 1
106 251 249 250 2 2 13 3 2 2 2 1 1 1 3 3 4 3 3 1 1
110 257 0 0 1 2 28 4 2 1 1 1 1 1 3 3 3 1 3 1 1
110 258 0 0 2 1 0 0 0 0 0 1 3 1 3 3 4 3 3 1 1
110 259 257 258 1 2 32 3 2 1 1 1 3 3 3 3 3 3 3 1 1
114 263 0 0 1 1 0 0 0 0 0 1 3 1 3 3 4 3 3 1 1
114 264 0 0 2 1 0 0 0 0 0 1 3 1 3 3 3 3 3 1 3
114 265 263 264 1 2 34 1 2 2 2 1 3 3 3 3 3 3 3 1 1
116 267 0 0 1 1 0 0 0 0 0 1 1 1 1 3 4 1 3 1 1
116 268 0 0 2 1 0 0 0 0 0 1 1 1 3 3 4 3 3 1 1
116 269 267 268 2 2 6 3 1 1 2 1 1 1 3 3 4 3 3 1 1
118 271 0 0 1 1 0 0 0 0 0 1 3 1 3 3 3 1 3 1 1
118 272 0 0 2 1 0 0 0 0 0 1 1 1 1 3 4 1 3 1 1
118 273 271 272 1 2 28 4 2 2 2 1 3 1 1 3 3 1 1 1 1
121 276 0 0 1 1 0 0 0 0 0 1 1 1 1 3 4 1 3 1 1
121 277 0 0 2 1 0 0 0 0 0 1 1 1 1 3 4 3 3 1 3
121 278 276 277 2 2 17 4 2 1 2 1 1 1 1 3 4 3 3 1 3
122 279 0 0 1 1 0 0 0 0 0 1 3 1 3 3 4 3 3 1 1
122 280 0 0 2 1 0 0 0 0 0 1 3 3 3 3 3 3 3 1 1
122 281 279 280 2 2 3 2 2 1 1 1 3 3 3 3 3 3 3 1 1
2000122 283 0 0 2 2 45 4 2 1 1 1 1 1 3 3 3 3 3 1 3
2000122 284 0 0 1 1 0 0 0 0 0 1 1 1 1 3 4 3 3 1 3
2000122 285 284 283 2 2 25 2 2 1 1 1 1 1 1 3 4 3 3 1 3
127 290 0 0 1 1 0 0 0 0 0 1 3 1 1 3 3 1 3 1 3
127 291 0 0 2 1 0 0 0 0 0 1 3 1 3 3 3 1 3 1 1
127 292 290 291 1 2 29 2 0 0 0 3 3 1 1 3 3 1 3 1 3
129 294 0 0 1 1 0 0 0 0 0 1 1 3 3 3 3 3 3 1 1
129 295 0 0 2 1 0 0 0 0 0 1 3 1 3 3 4 3 3 1 1
129 296 294 295 1 2 2 1 2 2 2 1 3 1 3 3 4 3 3 1 1
133 306 0 0 1 1 0 0 0 0 0 1 3 1 3 3 4 3 3 1 1
133 307 0 0 2 1 0 0 0 0 0 1 1 1 3 3 4 3 3 1 1
133 308 306 307 2 2 43 3 2 2 2 1 1 1 3 3 4 3 3 1 1
137 316 0 0 1 1 0 0 0 0 0 1 3 1 3 3 4 3 3 1 1
137 317 0 0 2 1 0 0 0 0 0 1 3 1 1 3 3 1 3 1 3
137 318 316 317 1 2 38 4 2 2 2 3 3 1 3 3 3 3 3 1 3
139 320 0 0 1 1 0 0 0 0 0 1 1 1 1 3 3 1 3 1 3
139 321 0 0 2 1 0 0 0 0 0 1 1 1 1 3 4 3 3 1 1
139 322 320 321 2 2 30 4 2 2 2 1 1 1 1 3 4 3 3 1 3
140 323 0 0 1 1 0 0 0 0 0 1 3 1 3 3 3 3 3 1 3
140 324 0 0 2 1 0 0 0 0 0 3 3 1 3 3 3 1 3 1 1
140 325 323 324 1 2 19 2 2 2 2 3 3 1 3 3 3 1 3 1 1
141 326 0 0 1 2 23 4 2 1 1 1 3 3 3 3 3 3 3 1 1
141 327 0 0 2 1 0 0 0 0 0 1 1 1 1 3 4 3 3 1 3
141 328 326 327 1 2 10 3 1 1 1 1 1 1 3 3 4 3 3 1 1
146 333 0 0 1 1 0 0 0 0 0 1 1 1 1 3 4 1 3 1 1
146 334 0 0 2 1 0 0 0 0 0 1 3 3 3 3 3 3 3 1 1
146 335 333 334 1 2 41 4 2 2 2 1 1 1 3 3 4 3 3 1 1
149 341 0 0 1 1 0 0 0 0 0 1 1 1 3 3 3 1 3 1 1
149 342 0 0 2 1 0 0 0 0 0 1 1 1 1 4 4 3 3 1 1
149 343 341 342 1 2 36 3 1 1 2 1 1 1 3 3 4 3 3 1 1
152 346 0 0 1 1 0 0 0 0 0 1 3 3 3 3 3 3 3 1 1
152 347 0 0 2 1 0 0 0 0 0 1 3 3 3 3 3 3 3 1 1
152 348 346 347 1 2 30 3 1 2 1 1 3 3 3 3 3 3 3 1 1
153 349 0 0 1 1 0 0 0 0 0 1 3 1 3 3 4 3 3 1 1
153 350 0 0 2 1 0 0 0 0 0 1 3 1 1 4 4 3 3 1 1
153 351 349 350 2 2 7 3 1 1 2 1 3 1 3 3 4 3 3 1 1
155 353 0 0 1 1 0 0 0 0 0 1 3 1 1 4 4 3 3 1 1
155 354 0 0 2 1 0 0 0 0 0 1 3 3 3 3 3 3 3 1 1
155 355 353 354 2 2 3 3 1 2 1 1 3 1 3 3 4 3 3 1 1
156 357 0 0 1 1 0 0 0 0 0 0 0 0 0 0 0 0 0 0 0
156 358 0 0 2 1 0 0 0 0 0 1 3 3 3 3 3 3 3 1 1
156 359 357 358 2 2 13 4 2 1 2 3 3 3 3 3 3 3 3 1 1
163 372 0 0 1 1 0 0 0 0 0 1 1 1 1 3 4 1 3 1 1
163 373 0 0 2 1 0 0 0 0 0 1 1 1 1 3 4 1 3 1 1
163 374 372 373 1 2 4 1 1 2 2 1 1 1 1 3 4 1 3 1 1
165 376 0 0 1 1 0 0 0 0 0 1 1 1 3 3 4 3 3 1 1
165 377 0 0 2 1 0 0 0 0 0 1 1 1 1 3 4 1 3 1 1
165 378 376 377 1 2 33 3 1 1 2 1 1 1 1 3 4 1 3 1 1
168 381 0 0 1 2 14 4 2 1 1 1 3 1 3 3 4 3 3 1 1
168 382 0 0 2 1 0 0 0 0 0 3 3 1 1 3 3 1 1 1 1
168 383 381 382 1 2 4 3 1 1 1 1 3 1 1 3 4 1 3 1 1
169 384 0 0 1 1 0 0 0 0 0 1 3 3 3 3 3 3 3 1 1
169 385 0 0 2 1 0 0 0 0 0 1 1 1 3 3 4 3 3 1 1
169 386 384 385 1 2 24 3 1 1 2 1 3 3 3 3 3 3 3 1 1
177 399 0 0 1 1 0 0 0 0 0 1 1 1 1 4 4 3 3 1 1
177 400 0 0 2 1 0 0 0 0 0 3 3 1 3 3 3 1 3 1 1
2000177 401 0 0 1 1 0 0 0 0 0 1 3 1 3 3 4 3 3 1 1
177 402 399 400 2 2 40 3 1 2 1 1 3 1 3 3 4 3 3 1 1
2000177 402 0 0 2 2 40 3 1 2 1 1 3 1 3 3 4 3 3 1 1
2000177 403 401 402 2 2 5 4 2 2 1 3 3 3 3 3 3 3 3 1 1
189 421 0 0 1 1 0 0 0 0 0 1 3 1 1 3 4 3 3 1 3
189 422 0 0 2 1 0 0 0 0 0 3 3 1 3 3 3 1 3 1 1
189 423 421 422 2 2 38 3 1 2 1 1 3 1 1 3 4 1 3 1 1
190 424 0 0 1 1 0 0 0 0 0 1 1 1 1 3 4 3 3 1 3
190 425 0 0 2 1 0 0 0 0 0 1 1 1 1 4 4 3 3 1 1
190 426 424 425 1 2 6 4 2 2 1 1 1 1 1 4 4 3 3 1 1
192 429 0 0 1 1 0 0 0 0 0 1 1 1 3 3 4 3 3 1 1
192 430 0 0 2 1 0 0 0 0 0 1 3 1 1 3 3 1 1 1 1
192 431 429 430 2 2 13 3 1 2 2 1 1 1 1 3 4 1 3 1 1
202 453 0 0 1 1 0 0 0 0 0 1 1 1 1 3 4 1 3 1 1
202 454 0 0 2 1 0 0 0 0 0 1 1 1 1 3 4 3 3 1 3
202 455 453 454 1 2 16 4 2 2 2 1 1 1 1 4 4 3 3 1 1
222 493 0 0 1 1 0 0 0 0 0 1 3 1 3 3 3 3 3 1 3
222 494 0 0 2 1 0 0 0 0 0 1 3 1 3 3 4 3 3 1 1
222 495 493 494 2 2 20 1 1 2 2 3 3 3 3 3 3 3 3 1 1
223 496 0 0 1 2 19 4 1 2 1 1 3 1 1 3 3 1 1 1 1
223 497 0 0 2 1 0 0 0 0 0 1 1 1 1 4 4 3 3 1 1
223 498 496 497 1 2 15 3 1 2 1 1 1 1 1 3 4 1 3 1 1
224 499 0 0 1 1 0 0 0 0 0 1 1 1 1 4 4 3 3 1 1
224 500 0 0 2 1 0 0 0 0 0 1 3 1 3 3 4 3 3 1 1
224 501 499 500 2 2 22 2 2 1 2 1 1 1 3 3 4 3 3 1 1
225 502 0 0 1 1 0 0 0 0 0 1 1 1 1 3 3 1 1 1 1
225 503 0 0 2 1 0 0 0 0 0 1 1 1 3 3 3 1 3 1 1
225 504 502 503 2 2 25 3 2 2 2 1 1 1 1 3 3 1 1 1 1
231 516 0 0 1 1 0 0 0 0 0 1 3 1 3 3 4 3 3 1 1
231 517 0 0 2 1 0 0 0 0 0 1 3 1 3 3 3 1 3 1 1
231 518 516 517 1 2 4 3 2 1 1 0 0 0 0 0 0 0 0 0 0
242 541 0 0 1 1 0 0 0 0 0 1 1 3 3 3 3 3 3 1 1
242 542 0 0 2 1 0 0 0 0 0 1 1 1 3 3 4 3 3 1 1
242 543 541 542 2 2 22 3 2 1 1 1 1 3 3 3 3 3 3 1 1
249 550 0 0 1 1 0 0 0 0 0 1 1 1 1 3 3 1 3 1 1
249 551 0 0 2 1 0 0 0 0 0 1 3 1 1 3 4 1 3 1 1
249 552 550 551 2 2 41 3 1 1 2 1 1 1 1 3 3 1 3 1 1
252 555 0 0 1 1 0 0 0 0 0 1 1 1 3 3 3 3 3 1 3
252 556 0 0 2 1 0 0 0 0 0 1 1 1 1 4 4 3 3 1 1
252 557 555 556 2 2 9 1 2 2 2 1 1 1 3 3 4 3 3 1 1
2000257 562 0 0 1 2 35 4 1 1 1 0 0 0 0 0 0 0 0 1 1
2000257 563 0 0 2 1 0 0 0 0 0 0 0 0 0 0 0 0 0 1 1
2000257 564 562 563 2 2 6 3 2 2 1 0 0 0 0 0 0 0 0 0 0
260 569 0 0 1 1 0 0 0 0 0 1 1 1 3 3 3 1 3 1 1
260 570 0 0 2 1 0 0 0 0 0 1 3 1 1 4 4 3 3 1 1
260 571 569 570 2 2 6 3 2 1 2 1 3 1 3 3 4 3 3 1 1
261 572 0 0 1 1 0 0 0 0 0 1 3 1 3 3 3 1 3 1 1
261 573 0 0 2 1 0 0 0 0 0 1 3 1 3 3 4 3 3 1 1
261 574 572 573 1 2 25 3 2 2 2 1 1 1 3 3 4 3 3 1 1
265 580 0 0 1 1 0 0 0 0 0 1 1 1 3 3 3 3 3 1 1
265 581 0 0 2 1 0 0 0 0 0 1 1 1 3 3 4 3 3 1 1
265 582 580 581 1 2 16 3 1 1 1 1 1 1 1 3 4 3 3 1 1
267 584 0 0 1 1 0 0 0 0 0 1 1 3 3 3 3 3 3 1 1
267 585 0 0 2 1 0 0 0 0 0 1 1 1 1 3 4 1 3 1 1
267 586 584 585 2 2 41 4 2 2 1 1 1 1 3 3 3 1 3 1 1
269 590 0 0 1 1 0 0 0 0 0 0 0 0 0 0 0 0 0 0 0
269 591 0 0 2 1 0 0 0 0 0 0 0 0 0 0 0 0 0 0 0
269 592 590 591 2 2 8 1 2 2 2 1 1 1 3 3 3 3 3 1 1
273 599 0 0 1 1 0 0 0 0 0 1 1 1 3 3 3 1 3 1 1
273 600 0 0 2 1 0 0 0 0 0 0 0 0 0 0 0 0 0 0 0
273 601 599 600 2 2 12 3 2 1 2 1 1 1 1 3 4 1 3 1 1
274 602 0 0 1 1 0 0 0 0 0 1 3 1 3 3 3 1 3 1 1
274 603 0 0 2 1 0 0 0 0 0 1 3 1 1 3 3 3 3 3 3
274 604 602 603 2 2 12 3 2 2 1 3 3 1 3 3 3 3 3 1 3
275 605 0 0 1 1 0 0 0 0 0 1 1 3 3 3 3 3 3 1 1
275 606 0 0 2 1 0 0 0 0 0 1 1 1 1 3 4 1 3 1 1
275 607 605 606 1 2 29 1 2 2 2 1 1 1 3 3 3 1 3 1 1
277 609 0 0 1 1 0 0 0 0 0 1 1 1 1 3 4 1 3 1 1
277 610 0 0 2 1 0 0 0 0 0 1 1 1 3 3 3 3 3 1 3
277 611 609 610 2 2 46 4 2 1 2 1 1 1 3 3 4 3 3 1 1
285 625 0 0 1 1 0 0 0 0 0 1 1 1 3 3 4 3 3 1 1
285 626 0 0 2 1 0 0 0 0 0 1 1 1 3 3 3 3 3 1 3
285 627 625 626 1 2 6 3 1 1 2 1 1 1 3 3 4 3 3 1 1
286 628 0 0 1 1 0 0 0 0 0 1 1 1 1 3 3 1 3 1 3
286 629 0 0 2 1 0 0 0 0 0 1 1 1 3 3 3 1 3 1 1
286 630 628 629 2 2 1 3 2 2 1 1 1 1 3 3 3 1 3 1 1
292 642 0 0 1 1 0 0 0 0 0 1 1 1 1 3 4 1 3 1 1
292 643 0 0 2 1 0 0 0 0 0 3 3 1 3 3 4 3 3 1 1
292 644 642 643 2 2 31 4 2 2 2 1 3 1 3 3 4 3 3 1 1
298 656 0 0 1 1 0 0 0 0 0 1 3 1 1 3 4 1 3 1 1
298 657 0 0 2 1 0 0 0 0 0 1 3 1 1 3 4 1 3 1 1
298 658 656 657 1 2 22 3 1 2 2 1 3 1 1 4 4 3 3 1 1
299 659 0 0 1 1 0 0 0 0 0 1 3 1 1 3 4 3 3 1 1
299 660 0 0 2 1 0 0 0 0 0 1 1 1 3 3 3 3 3 1 3
299 661 659 660 2 2 12 3 2 2 2 1 3 1 1 3 3 3 3 1 3
300 662 0 0 1 1 0 0 0 0 0 1 3 3 3 3 3 3 3 1 1
300 663 0 0 2 1 0 0 0 0 0 3 3 1 3 3 4 3 3 1 1
300 664 662 663 1 2 11 1 2 2 1 3 3 3 3 3 3 3 3 1 1
304 672 0 0 1 1 0 0 0 0 0 1 3 1 1 3 4 3 3 1 3
304 673 0 0 2 1 0 0 0 0 0 3 3 1 1 3 3 1 1 1 1
304 674 672 673 2 2 7 3 1 1 2 1 3 1 1 3 4 1 3 1 1
305 675 0 0 1 1 0 0 0 0 0 1 3 1 3 3 4 3 3 1 1
305 676 0 0 2 2 30 3 2 1 1 1 3 1 3 3 3 3 3 1 3
305 677 675 676 2 2 23 3 1 1 1 1 1 1 3 3 3 3 3 1 3
306 678 0 0 1 1 0 0 0 0 0 1 1 1 3 3 4 3 3 1 1
306 679 0 0 2 1 0 0 0 0 0 1 3 1 1 3 4 1 3 1 1
306 680 678 679 1 2 26 4 1 2 2 1 1 1 1 4 4 3 3 1 1
311 689 0 0 1 1 0 0 0 0 0 1 1 3 3 3 3 3 3 1 1
311 690 0 0 2 1 0 0 0 0 0 3 3 1 3 3 3 1 3 1 1
311 691 689 690 2 2 34 4 2 2 2 1 3 1 3 3 3 1 3 1 1
313 693 0 0 1 1 0 0 0 0 0 1 1 1 1 3 4 1 3 1 1
313 694 0 0 2 1 0 0 0 0 0 1 1 1 1 3 3 1 1 1 1
313 695 693 694 2 2 4 4 2 1 1 1 1 1 1 3 4 1 3 1 1
314 696 0 0 1 1 0 0 0 0 0 1 3 1 3 3 4 3 3 1 1
314 697 0 0 2 1 0 0 0 0 0 3 3 1 3 3 4 3 3 1 1
314 698 696 697 2 2 2 1 2 2 2 3 3 1 3 3 4 3 3 1 1
315 699 0 0 1 1 0 0 0 0 0 1 1 1 1 4 4 3 3 1 1
315 700 0 0 2 1 0 0 0 0 0 1 1 1 1 3 3 1 3 1 3
2000315 701 0 0 1 1 0 0 0 0 0 1 3 3 3 3 3 3 3 1 1
315 702 699 700 2 1 0 0 0 0 0 1 1 1 1 3 4 3 3 1 3
2000315 702 0 0 2 1 0 0 0 0 0 1 1 1 1 3 4 3 3 1 3
2000315 703 701 702 1 2 25 4 1 1 1 1 3 1 3 3 3 3 3 1 3
315 704 699 700 1 2 20 4 2 1 1 1 1 1 1 3 4 1 3 1 1
2001315 705 0 0 1 1 0 0 0 0 0 1 1 1 3 3 3 1 3 1 1
315 706 699 700 2 2 10 4 2 1 1 1 1 1 1 3 4 3 3 1 3
2001315 706 0 0 2 2 10 4 2 1 1 1 1 1 1 3 4 3 3 1 3
2001315 707 705 706 1 2 9 2 2 1 1 1 1 1 1 3 3 1 3 1 3
315 708 699 700 1 2 17 2 2 1 1 1 1 1 1 3 4 3 3 1 3
316 709 0 0 1 1 0 0 0 0 0 1 3 1 1 4 4 3 3 1 1
316 710 0 0 2 1 0 0 0 0 0 1 3 1 3 3 3 1 3 1 1
316 711 709 710 2 2 12 4 2 2 2 3 3 1 3 3 4 3 3 1 1
318 713 0 0 1 1 0 0 0 0 0 1 3 1 1 4 4 3 3 1 1
318 714 0 0 2 1 0 0 0 0 0 1 1 1 3 3 4 3 3 1 1
318 715 713 714 1 2 23 3 2 2 1 1 3 1 1 4 4 3 3 1 1
319 716 0 0 1 1 0 0 0 0 0 1 1 1 1 3 4 1 3 1 1
319 717 0 0 2 1 0 0 0 0 0 1 3 1 3 3 3 1 3 1 1
319 718 716 717 1 2 15 3 2 1 2 1 3 1 3 3 4 3 3 1 1
320 719 0 0 1 1 0 0 0 0 0 1 1 1 3 3 3 3 3 1 3
320 720 0 0 2 1 0 0 0 0 0 1 1 1 1 3 3 1 3 1 3
320 721 719 720 2 2 29 3 1 1 2 1 1 1 3 3 3 3 3 1 3
325 728 0 0 1 1 0 0 0 0 0 1 3 1 1 4 4 3 3 1 1
325 729 0 0 2 1 0 0 0 0 0 1 3 1 3 3 3 1 3 1 1
325 730 728 729 2 2 2 3 1 1 2 1 3 1 1 3 4 1 3 1 1
334 755 0 0 1 1 0 0 0 0 0 1 3 1 1 3 4 1 3 1 1
334 756 0 0 2 1 0 0 0 0 0 1 3 1 3 3 3 1 3 1 1
334 757 755 756 1 2 46 4 2 2 1 1 3 1 1 3 3 1 1 1 1
337 764 0 0 1 1 0 0 0 0 0 1 1 1 1 3 4 1 3 1 1
337 765 0 0 2 1 0 0 0 0 0 1 3 1 1 4 4 3 3 1 1
337 766 764 765 1 2 26 4 2 1 2 1 3 1 1 4 4 3 3 1 1
338 767 0 0 1 1 0 0 0 0 0 1 3 1 3 3 4 3 3 1 1
338 768 0 0 2 1 0 0 0 0 0 1 3 1 3 3 3 1 3 1 1
338 769 767 768 2 2 16 3 1 1 1 1 3 3 3 3 3 3 3 1 1
344 781 0 0 1 1 0 0 0 0 0 1 1 1 1 3 4 1 3 1 1
344 782 0 0 2 1 0 0 0 0 0 3 3 1 1 4 4 3 3 1 1
344 783 781 782 1 2 12 1 2 2 2 1 3 1 1 3 4 1 3 1 1
352 795 0 0 1 1 0 0 0 0 0 1 1 1 3 3 3 1 3 1 1
352 796 0 0 2 1 0 0 0 0 0 1 1 3 3 3 3 3 3 1 1
352 797 795 796 2 2 44 3 1 1 1 1 1 1 3 3 3 1 3 1 1
356 805 0 0 1 1 0 0 0 0 0 1 3 1 3 3 3 3 3 1 3
356 806 0 0 2 1 0 0 0 0 0 1 1 1 1 3 3 3 3 3 3
356 807 805 806 2 2 6 3 1 1 2 1 3 1 1 3 3 3 3 3 3
358 809 0 0 1 1 0 0 0 0 0 1 1 1 3 3 4 3 3 1 1
358 810 0 0 2 1 0 0 0 0 0 1 1 1 3 3 4 3 3 1 1
358 811 809 810 2 2 7 3 1 1 1 1 1 3 3 3 3 3 3 1 1
360 813 0 0 1 1 0 0 0 0 0 1 1 1 3 3 4 3 3 1 1
360 814 0 0 2 1 0 0 0 0 0 3 3 3 3 3 3 3 3 1 1
360 815 813 814 2 2 13 3 2 1 1 1 3 3 3 3 3 3 3 1 1
2000360 815 0 0 2 2 13 3 2 1 1 1 3 3 3 3 3 3 3 1 1
2000360 816 0 0 1 1 0 0 0 0 0 1 3 1 1 3 4 1 3 1 1
2000360 817 816 815 2 2 5 4 2 1 1 3 3 1 3 3 3 1 3 1 1
372 829 0 0 1 1 0 0 0 0 0 1 1 1 3 3 3 3 3 1 3
372 830 0 0 2 1 0 0 0 0 0 1 1 1 3 3 4 3 3 1 1
372 831 829 830 1 2 16 1 2 2 2 1 1 1 3 3 4 3 3 1 1
374 833 0 0 1 1 0 0 0 0 0 1 1 1 3 3 4 3 3 1 1
374 834 0 0 2 1 0 0 0 0 0 1 1 1 1 3 4 1 3 1 1
374 835 833 834 2 2 21 1 2 2 2 1 1 1 3 3 4 3 3 1 1
375 836 0 0 1 1 0 0 0 0 0 1 1 3 3 3 3 3 3 1 1
375 837 0 0 2 1 0 0 0 0 0 1 3 3 3 3 3 3 3 1 1
375 838 836 837 1 2 6 1 2 2 2 1 3 3 3 3 3 3 3 1 1
391 856 0 0 1 1 0 0 0 0 0 1 1 1 3 3 3 3 3 1 3
391 857 0 0 2 1 0 0 0 0 0 1 1 3 3 3 3 3 3 1 1
391 858 856 857 1 2 15 3 2 1 2 1 1 3 3 3 3 3 3 1 1
392 859 0 0 1 1 0 0 0 0 0 1 1 1 3 3 4 3 3 1 1
392 860 0 0 2 1 0 0 0 0 0 1 1 1 3 3 4 3 3 1 1
392 861 859 860 1 2 22 3 2 2 2 1 1 1 3 3 4 3 3 1 1
393 862 0 0 1 1 0 0 0 0 0 1 1 1 1 3 4 3 3 1 3
393 863 0 0 2 1 0 0 0 0 0 1 3 1 1 3 4 3 3 1 3
393 864 862 863 1 2 16 1 2 2 2 1 1 1 1 4 4 3 3 1 1
405 876 877 878 1 2 36 4 2 1 2 1 3 1 1 3 4 1 3 1 1
405 877 0 0 1 1 0 0 0 0 0 1 3 1 1 3 4 1 3 1 1
405 878 0 0 2 1 0 0 0 0 0 3 3 1 1 3 3 1 1 1 1
407 880 881 882 2 2 9 1 2 2 2 1 1 3 3 3 3 3 3 1 1
407 881 0 0 1 1 0 0 0 0 0 1 1 1 3 3 4 3 3 1 1
407 882 0 0 2 1 0 0 0 0 0 1 3 1 3 3 3 3 3 1 3
426 905 0 0 1 1 0 0 0 0 0 1 1 1 3 3 4 3 3 1 1
426 906 0 0 2 1 0 0 0 0 0 3 3 1 3 3 4 3 3 1 1
426 907 905 906 2 2 28 4 2 2 1 1 3 1 3 3 4 3 3 1 1
432 915 0 0 1 1 0 0 0 0 0 1 1 3 3 3 3 3 3 1 1
432 916 0 0 2 1 0 0 0 0 0 1 1 3 3 3 3 3 3 1 1
432 917 915 916 1 2 28 3 1 2 2 1 1 3 3 3 3 3 3 1 1
436 921 0 0 1 1 0 0 0 0 0 1 1 1 1 3 3 1 3 1 3
436 922 0 0 2 1 0 0 0 0 0 1 1 1 1 3 3 1 1 1 1
436 923 921 922 1 2 28 3 1 1 2 1 1 1 1 3 3 1 3 1 3
437 924 0 0 1 1 0 0 0 0 0 1 1 1 3 3 4 3 3 1 1
437 925 0 0 2 1 0 0 0 0 0 1 1 1 1 4 4 3 3 1 1
437 926 924 925 2 2 11 3 1 2 0 1 1 1 3 3 4 3 3 1 1
442 933 0 0 1 1 0 0 0 0 0 1 1 3 3 3 3 3 3 1 1
442 934 0 0 2 1 0 0 0 0 0 1 1 1 3 3 3 3 3 1 3
442 935 933 934 2 2 13 1 2 1 2 1 1 0 0 0 0 0 0 0 0
443 936 0 0 1 1 0 0 0 0 0 3 3 1 1 4 4 3 3 1 1
443 937 0 0 2 1 0 0 0 0 0 1 1 1 3 3 3 3 3 1 1
443 938 936 937 2 2 7 4 1 2 0 1 3 1 3 3 4 3 3 1 1
444 939 0 0 1 1 0 0 0 0 0 1 3 1 3 3 4 3 3 1 1
444 940 0 0 2 2 22 5 0 1 1 1 3 3 3 3 3 3 3 1 1
2000444 941 0 0 1 1 0 0 0 0 0 1 1 1 3 3 4 3 3 1 1
444 942 939 940 2 2 21 5 1 1 1 1 1 3 3 3 3 3 3 1 1
2000444 942 0 0 2 2 21 5 1 1 1 1 1 3 3 3 3 3 3 1 1
444 943 939 940 2 2 42 4 0 1 1 1 3 1 3 3 4 3 3 1 1
2000444 944 941 942 2 2 26 4 2 1 1 1 1 3 3 3 4 3 3 1 1
446 948 0 0 1 1 0 0 0 0 0 1 3 1 1 3 4 1 3 1 1
446 949 0 0 2 1 0 0 0 0 0 1 3 1 3 3 3 3 3 1 1
446 950 948 949 2 2 7 3 1 2 1 1 3 1 3 3 4 3 3 1 1
446 951 948 949 1 2 19 3 0 2 1 1 1 1 3 3 4 3 3 1 1
454 965 0 0 1 1 0 0 0 0 0 1 3 1 1 4 4 3 3 1 1
454 966 0 0 2 1 0 0 0 0 0 1 1 1 3 3 4 3 3 1 1
454 967 965 966 2 2 3 3 1 1 2 1 1 1 1 4 4 3 3 1 1
455 968 0 0 1 1 0 0 0 0 0 1 3 1 3 3 3 1 3 1 1
455 969 0 0 2 1 0 0 0 0 0 1 1 3 3 3 3 3 3 1 1
455 970 968 969 1 2 30 4 1 2 1 1 1 3 3 3 3 3 3 1 1
457 972 0 0 1 1 0 0 0 0 0 1 3 1 1 3 4 1 3 1 1
457 973 0 0 2 1 0 0 0 0 0 1 1 1 3 3 3 1 3 1 1
457 974 972 973 2 2 8 3 1 2 2 1 3 1 1 3 4 1 3 1 1
459 980 0 0 1 1 0 0 0 0 0 3 3 1 1 3 3 1 3 1 3
459 981 0 0 2 1 0 0 0 0 0 0 0 1 3 3 3 1 3 1 1
459 982 980 981 1 2 11 4 2 1 1 1 3 1 3 3 3 3 3 1 3
460 983 0 0 1 1 0 0 0 0 0 1 1 3 3 3 3 3 3 1 1
460 984 0 0 2 1 0 0 0 0 0 1 3 1 3 3 3 3 3 1 3
460 985 983 984 2 2 9 3 1 2 2 1 3 1 3 3 3 3 3 1 3
466 995 0 0 1 1 0 0 0 0 0 1 1 1 1 3 3 1 1 1 1
466 996 0 0 2 1 0 0 0 0 0 1 1 1 3 3 3 1 3 1 1
466 997 995 996 2 2 4 3 1 2 1 1 1 1 1 3 3 1 1 1 1
467 999 0 0 1 1 0 0 0 0 0 1 1 3 3 3 3 3 3 1 1
467 1000 0 0 2 1 0 0 0 0 0 1 1 1 3 3 3 1 3 1 1
467 1001 999 1000 2 2 12 4 1 2 2 1 1 1 3 3 3 1 3 1 1
479 1021 0 0 1 1 0 0 0 0 0 1 3 1 3 3 3 3 3 1 1
479 1022 0 0 2 1 0 0 0 0 0 1 3 1 3 3 4 3 3 1 1
479 1023 1021 1022 1 2 10 3 1 2 1 1 1 1 3 3 4 3 3 1 1
485 1035 0 0 1 1 0 0 0 0 0 1 3 1 1 3 3 1 3 1 3
485 1036 0 0 2 1 0 0 0 0 0 1 1 1 3 3 3 3 3 1 3
485 1037 1035 1036 2 2 18 3 2 1 2 1 3 1 3 3 3 3 3 1 3
486 1043 0 0 1 1 0 0 0 0 0 1 1 1 3 3 4 3 3 1 1
486 1044 0 0 2 2 4 3 1 1 1 1 3 1 1 3 4 0 0 1 1
486 1045 1043 1044 1 2 3 4 2 1 1 1 3 1 1 3 4 0 0 1 1
486 1046 1043 1044 1 2 3 2 2 1 1 1 3 1 1 3 4 1 3 1 1
487 1047 0 0 1 1 0 0 0 0 0 1 3 1 3 3 3 1 3 1 1
487 1048 0 0 2 1 0 0 0 0 0 1 3 1 3 3 3 3 3 1 3
487 1049 1047 1048 2 2 25 1 2 2 2 1 3 1 3 3 3 0 0 1 1
488 1050 0 0 1 1 0 0 0 0 0 1 1 1 3 3 4 3 3 1 1
488 1051 0 0 2 1 0 0 0 0 0 1 1 1 1 3 3 1 3 1 1
488 1052 1050 1051 2 2 15 3 1 2 2 1 1 1 1 3 4 1 3 1 1
491 1055 0 0 1 1 0 0 0 0 0 1 3 1 3 3 3 1 3 1 1
491 1056 0 0 2 1 0 0 0 0 0 1 1 1 1 3 4 3 3 1 1
491 1057 1055 1056 1 2 8 3 2 2 1 1 3 1 3 3 4 3 3 1 1
491 1059 1055 1056 2 1 0 0 0 0 0 0 0 0 0 0 0 3 3 1 1
497 1069 0 0 1 1 0 0 0 0 0 1 1 1 3 3 4 3 3 1 1
497 1070 0 0 2 1 0 0 0 0 0 1 3 1 1 3 3 1 1 1 1
497 1071 1069 1070 2 2 18 3 1 1 1 1 1 1 1 3 4 1 3 1 1
501 1078 0 0 1 1 0 0 0 0 0 1 1 1 1 4 4 3 3 1 1
501 1079 0 0 2 1 0 0 0 0 0 1 1 1 1 3 3 1 3 1 3
501 1080 1078 1079 2 2 19 3 1 2 2 1 1 1 1 3 4 3 3 1 3
507 1088 0 0 1 1 0 0 0 0 0 1 3 1 1 4 4 3 3 1 1
507 1089 0 0 2 1 0 0 0 0 0 1 3 3 3 3 3 3 3 1 1
507 1090 1088 1089 2 2 7 1 2 2 1 1 1 1 3 3 4 3 3 1 1
513 1098 0 0 1 1 0 0 0 0 0 1 3 1 1 4 4 3 3 1 1
513 1099 0 0 2 1 0 0 0 0 0 1 1 1 1 3 3 1 3 1 3
513 1100 1098 1099 2 2 15 1 2 1 2 1 1 1 1 3 4 3 3 1 3
515 1104 0 0 1 1 0 0 0 0 0 1 3 1 1 3 4 1 3 1 1
515 1105 0 0 2 1 0 0 0 0 0 1 1 1 3 3 3 1 3 1 1
515 1106 1104 1105 2 2 35 4 2 1 1 1 3 1 1 3 4 1 3 1 1
515 1107 1104 1105 2 2 24 3 0 1 1 1 3 1 1 3 3 1 1 1 1
521 1117 0 0 1 1 0 0 0 0 0 1 1 1 3 3 4 3 3 1 1
521 1118 0 0 2 1 0 0 0 0 0 1 3 1 3 3 3 3 3 1 3
521 1119 1117 1118 1 2 8 1 2 2 1 1 3 1 3 3 3 3 3 1 3
523 1122 0 0 1 1 0 0 0 0 0 1 1 1 1 3 4 3 3 1 3
523 1123 0 0 2 1 0 0 0 0 0 1 3 1 1 3 4 1 3 1 1
523 1124 1122 1123 1 2 8 5 1 1 1 1 1 1 1 3 3 1 3 1 3
532 1150 0 0 1 2 17 3 2 1 1 1 3 1 3 3 3 3 3 1 3
532 1151 0 0 2 1 0 0 0 0 0 1 1 1 1 4 4 3 3 1 1
532 1152 1150 1151 2 2 18 3 2 1 1 1 1 1 3 3 4 3 3 1 1
534 1155 0 0 1 1 0 0 0 0 0 1 3 1 3 3 3 3 3 1 1
534 1156 0 0 2 1 0 0 0 0 0 1 3 0 0 0 0 1 1 1 1
534 1157 1155 1156 2 2 6 3 2 1 1 0 0 0 0 0 0 1 3 1 1
544 1171 0 0 1 1 0 0 0 0 0 1 3 1 3 3 4 3 3 1 1
544 1172 0 0 2 2 12 1 1 1 1 1 3 3 3 3 3 3 3 1 1
544 1173 1171 1172 1 2 41 3 1 1 1 1 3 1 3 3 4 3 3 1 1
547 1176 0 0 1 2 6 3 0 2 1 1 1 1 1 3 4 3 3 1 3
547 1177 0 0 2 1 0 0 0 0 0 1 1 1 3 3 4 3 3 1 1
547 1178 1176 1177 1 2 15 3 1 2 1 1 1 1 1 3 4 3 3 1 3
615 1264 0 0 1 1 0 0 0 0 0 1 1 3 3 3 3 3 3 1 1
615 1265 0 0 2 1 0 0 0 0 0 1 3 1 1 3 4 1 3 1 1
615 1266 1264 1265 2 2 10 4 1 2 1 1 3 1 3 3 3 1 3 1 1
Entrei achar trios
Malloc matriz trio Ok.
Linha 0: ID = 2, FT = 5, MT = 0 
  Um ou mais pais zerados
Linha 1: ID = 6, FT = 0, MT = 0 
  Um ou mais pais zerados
Linha 2: ID = 7, FT = 5, MT = 6 
Busca
Busca
Ponteiro f = (nil), m = 0xd15370
  Um ou mais pais não estão na tabela
Linha 3: ID = 8, FT = 0, MT = 0 
  Um ou mais pais zerados
Linha 4: ID = 9, FT = 0, MT = 0 
  Um ou mais pais zerados
Linha 5: ID = 10, FT = 8, MT = 9 
Busca
Busca
Ponteiro f = 0xd15430, m = 0xd15490
Achei o 0 trio:
 c = 10, f = 8, m = 9 
Linha 6: ID = 11, FT = 0, MT = 0 
  Um ou mais pais zerados
Linha 7: ID = 12, FT = 0, MT = 0 
  Um ou mais pais zerados
Linha 8: ID = 13, FT = 11, MT = 12 
Busca
Busca
Ponteiro f = 0xd15550, m = 0xd155b0
Achei o 1 trio:
 c = 13, f = 11, m = 12 
Linha 9: ID = 14, FT = 0, MT = 0 
  Um ou mais pais zerados
Linha 10: ID = 15, FT = 0, MT = 0 
  Um ou mais pais zerados
Linha 11: ID = 16, FT = 14, MT = 15 
Busca
Busca
Ponteiro f = 0xd15670, m = 0xd156d0
Achei o 2 trio:
 c = 16, f = 14, m = 15 
Linha 12: ID = 17, FT = 0, MT = 0 
  Um ou mais pais zerados
Linha 13: ID = 18, FT = 0, MT = 0 
  Um ou mais pais zerados
Linha 14: ID = 19, FT = 17, MT = 18 
Busca
Busca
Ponteiro f = 0xd15790, m = 0xd157f0
Achei o 3 trio:
 c = 19, f = 17, m = 18 
Linha 15: ID = 24, FT = 0, MT = 0 
  Um ou mais pais zerados
Linha 16: ID = 25, FT = 0, MT = 0 
  Um ou mais pais zerados
Linha 17: ID = 26, FT = 24, MT = 25 
Busca
Busca
Ponteiro f = 0xd158b0, m = 0xd15910
Achei o 4 trio:
 c = 26, f = 24, m = 25 
Linha 18: ID = 33, FT = 0, MT = 0 
  Um ou mais pais zerados
Linha 19: ID = 34, FT = 0, MT = 0 
  Um ou mais pais zerados
Linha 20: ID = 35, FT = 33, MT = 34 
Busca
Busca
Ponteiro f = 0xd159d0, m = 0xd15a30
Achei o 5 trio:
 c = 35, f = 33, m = 34 
Linha 21: ID = 36, FT = 0, MT = 0 
  Um ou mais pais zerados
Linha 22: ID = 37, FT = 0, MT = 0 
  Um ou mais pais zerados
Linha 23: ID = 38, FT = 36, MT = 37 
Busca
Busca
Ponteiro f = 0xd15af0, m = 0xd15b50
Achei o 6 trio:
 c = 38, f = 36, m = 37 
Linha 24: ID = 44, FT = 45, MT = 46 
Busca
Busca
Ponteiro f = 0xd15c10, m = 0xd15c70
Achei o 7 trio:
 c = 44, f = 45, m = 46 
Linha 25: ID = 45, FT = 0, MT = 0 
  Um ou mais pais zerados
Linha 26: ID = 46, FT = 0, MT = 0 
  Um ou mais pais zerados
Linha 27: ID = 47, FT = 48, MT = 49 
Busca
Busca
Ponteiro f = 0xd15d30, m = 0xd15d90
Achei o 8 trio:
 c = 47, f = 48, m = 49 
Linha 28: ID = 48, FT = 0, MT = 0 
  Um ou mais pais zerados
Linha 29: ID = 49, FT = 0, MT = 0 
  Um ou mais pais zerados
Linha 30: ID = 51, FT = 52, MT = 53 
Busca
Busca
Ponteiro f = 0xd15e50, m = 0xd15eb0
Achei o 9 trio:
 c = 51, f = 52, m = 53 
Linha 31: ID = 52, FT = 0, MT = 0 
  Um ou mais pais zerados
Linha 32: ID = 53, FT = 0, MT = 0 
  Um ou mais pais zerados
Linha 33: ID = 54, FT = 0, MT = 0 
  Um ou mais pais zerados
Linha 34: ID = 55, FT = 0, MT = 0 
  Um ou mais pais zerados
Linha 35: ID = 56, FT = 54, MT = 55 
Busca
Busca
Ponteiro f = 0xd15f70, m = 0xd15fd0
Achei o 10 trio:
 c = 56, f = 54, m = 55 
Linha 36: ID = 59, FT = 60, MT = 61 
Busca
Busca
Ponteiro f = 0xd16090, m = 0xd160f0
Achei o 11 trio:
 c = 59, f = 60, m = 61 
Linha 37: ID = 60, FT = 0, MT = 0 
  Um ou mais pais zerados
Linha 38: ID = 61, FT = 0, MT = 0 
  Um ou mais pais zerados
Linha 39: ID = 63, FT = 64, MT = 65 
Busca
Busca
Ponteiro f = 0xd161b0, m = 0xd16210
Achei o 12 trio:
 c = 63, f = 64, m = 65 
Linha 40: ID = 64, FT = 0, MT = 0 
  Um ou mais pais zerados
Linha 41: ID = 65, FT = 0, MT = 0 
  Um ou mais pais zerados
Linha 42: ID = 67, FT = 68, MT = 69 
Busca
Busca
Ponteiro f = 0xd162d0, m = 0xd16330
Achei o 13 trio:
 c = 67, f = 68, m = 69 
Linha 43: ID = 68, FT = 0, MT = 0 
  Um ou mais pais zerados
Linha 44: ID = 69, FT = 0, MT = 0 
  Um ou mais pais zerados
Linha 45: ID = 71, FT = 0, MT = 0 
  Um ou mais pais zerados
Linha 46: ID = 72, FT = 0, MT = 0 
  Um ou mais pais zerados
Linha 47: ID = 73, FT = 71, MT = 72 
Busca
Busca
Ponteiro f = 0xd163f0, m = 0xd16450
Achei o 14 trio:
 c = 73, f = 71, m = 72 
Linha 48: ID = 80, FT = 81, MT = 82 
Busca
Busca
Ponteiro f = 0xd16510, m = 0xd16570
Achei o 15 trio:
 c = 80, f = 81, m = 82 
Linha 49: ID = 81, FT = 0, MT = 0 
  Um ou mais pais zerados
Linha 50: ID = 82, FT = 0, MT = 0 
  Um ou mais pais zerados
Linha 51: ID = 83, FT = 85, MT = 84 
Busca
Busca
Ponteiro f = 0xd16690, m = 0xd16630
Achei o 16 trio:
 c = 83, f = 85, m = 84 
Linha 52: ID = 84, FT = 0, MT = 0 
  Um ou mais pais zerados
Linha 53: ID = 85, FT = 0, MT = 0 
  Um ou mais pais zerados
Linha 54: ID = 90, FT = 0, MT = 0 
  Um ou mais pais zerados
Linha 55: ID = 91, FT = 0, MT = 0 
  Um ou mais pais zerados
Linha 56: ID = 92, FT = 90, MT = 91 
Busca
Busca
Ponteiro f = 0xd16750, m = 0xd167b0
Achei o 17 trio:
 c = 92, f = 90, m = 91 
Linha 57: ID = 94, FT = 0, MT = 0 
  Um ou mais pais zerados
Linha 58: ID = 95, FT = 0, MT = 0 
  Um ou mais pais zerados
Linha 59: ID = 96, FT = 94, MT = 95 
Busca
Busca
Ponteiro f = 0xd16870, m = 0xd168d0
Achei o 18 trio:
 c = 96, f = 94, m = 95 
Linha 60: ID = 97, FT = 99, MT = 100 
Busca
Busca
Ponteiro f = 0xd16990, m = 0xd169f0
Achei o 19 trio:
 c = 97, f = 99, m = 100 
Linha 61: ID = 98, FT = 99, MT = 100 
Busca
Busca
Ponteiro f = 0xd16990, m = 0xd169f0
Achei o 20 trio:
 c = 98, f = 99, m = 100 
Linha 62: ID = 99, FT = 0, MT = 0 
  Um ou mais pais zerados
Linha 63: ID = 100, FT = 0, MT = 0 
  Um ou mais pais zerados
Linha 64: ID = 105, FT = 107, MT = 106 
Busca
Busca
Ponteiro f = 0xd16b70, m = 0xd16b10
Achei o 21 trio:
 c = 105, f = 107, m = 106 
Linha 65: ID = 106, FT = 0, MT = 0 
  Um ou mais pais zerados
Linha 66: ID = 107, FT = 0, MT = 0 
  Um ou mais pais zerados
Linha 67: ID = 108, FT = 0, MT = 0 
  Um ou mais pais zerados
Linha 68: ID = 109, FT = 0, MT = 0 
  Um ou mais pais zerados
Linha 69: ID = 110, FT = 108, MT = 109 
Busca
Busca
Ponteiro f = 0xd16c30, m = 0xd16c90
Achei o 22 trio:
 c = 110, f = 108, m = 109 
Linha 70: ID = 111, FT = 112, MT = 113 
Busca
Busca
Ponteiro f = 0xd16d50, m = 0xd16db0
Achei o 23 trio:
 c = 111, f = 112, m = 113 
Linha 71: ID = 112, FT = 0, MT = 0 
  Um ou mais pais zerados
Linha 72: ID = 113, FT = 0, MT = 0 
  Um ou mais pais zerados
Linha 73: ID = 114, FT = 0, MT = 0 
  Um ou mais pais zerados
Linha 74: ID = 115, FT = 0, MT = 0 
  Um ou mais pais zerados
Linha 75: ID = 116, FT = 114, MT = 115 
Busca
Busca
Ponteiro f = 0xd16e70, m = 0xd16ed0
Achei o 24 trio:
 c = 116, f = 114, m = 115 
Linha 76: ID = 117, FT = 0, MT = 0 
  Um ou mais pais zerados
Linha 77: ID = 118, FT = 0, MT = 0 
  Um ou mais pais zerados
Linha 78: ID = 119, FT = 117, MT = 118 
Busca
Busca
Ponteiro f = 0xd16f90, m = 0xd16ff0
Achei o 25 trio:
 c = 119, f = 117, m = 118 
Linha 79: ID = 120, FT = 121, MT = 122 
Busca
Busca
Ponteiro f = 0xd170b0, m = 0xd17110
Achei o 26 trio:
 c = 120, f = 121, m = 122 
Linha 80: ID = 121, FT = 0, MT = 0 
  Um ou mais pais zerados
Linha 81: ID = 122, FT = 0, MT = 0 
  Um ou mais pais zerados
Linha 82: ID = 124, FT = 125, MT = 126 
Busca
Busca
Ponteiro f = 0xd171d0, m = 0xd17230
Achei o 27 trio:
 c = 124, f = 125, m = 126 
Linha 83: ID = 125, FT = 0, MT = 0 
  Um ou mais pais zerados
Linha 84: ID = 126, FT = 0, MT = 0 
  Um ou mais pais zerados
Linha 85: ID = 130, FT = 0, MT = 0 
  Um ou mais pais zerados
Linha 86: ID = 131, FT = 0, MT = 0 
  Um ou mais pais zerados
Linha 87: ID = 132, FT = 130, MT = 131 
Busca
Busca
Ponteiro f = 0xd172f0, m = 0xd17350
Achei o 28 trio:
 c = 132, f = 130, m = 131 
Linha 88: ID = 133, FT = 130, MT = 131 
Busca
Busca
Ponteiro f = 0xd172f0, m = 0xd17350
Achei o 29 trio:
 c = 133, f = 130, m = 131 
Linha 89: ID = 134, FT = 130, MT = 131 
Busca
Busca
Ponteiro f = 0xd172f0, m = 0xd17350
Achei o 30 trio:
 c = 134, f = 130, m = 131 
Linha 90: ID = 136, FT = 0, MT = 0 
  Um ou mais pais zerados
Linha 91: ID = 137, FT = 0, MT = 0 
  Um ou mais pais zerados
Linha 92: ID = 138, FT = 136, MT = 137 
Busca
Busca
Ponteiro f = 0xd174d0, m = 0xd17530
Achei o 31 trio:
 c = 138, f = 136, m = 137 
Linha 93: ID = 139, FT = 136, MT = 137 
Busca
Busca
Ponteiro f = 0xd174d0, m = 0xd17530
Achei o 32 trio:
 c = 139, f = 136, m = 137 
Linha 94: ID = 141, FT = 142, MT = 143 
Busca
Busca
Ponteiro f = 0xd17650, m = 0xd176b0
Achei o 33 trio:
 c = 141, f = 142, m = 143 
Linha 95: ID = 142, FT = 0, MT = 0 
  Um ou mais pais zerados
Linha 96: ID = 143, FT = 0, MT = 0 
  Um ou mais pais zerados
Linha 97: ID = 144, FT = 0, MT = 0 
  Um ou mais pais zerados
Linha 98: ID = 145, FT = 0, MT = 0 
  Um ou mais pais zerados
Linha 99: ID = 146, FT = 144, MT = 145 
Busca
Busca
Ponteiro f = 0xd17770, m = 0xd177d0
Achei o 34 trio:
 c = 146, f = 144, m = 145 
Linha 100: ID = 153, FT = 0, MT = 0 
  Um ou mais pais zerados
Linha 101: ID = 154, FT = 0, MT = 0 
  Um ou mais pais zerados
Linha 102: ID = 155, FT = 154, MT = 153 
Busca
Busca
Ponteiro f = 0xd178f0, m = 0xd17890
Achei o 35 trio:
 c = 155, f = 154, m = 153 
Linha 103: ID = 163, FT = 0, MT = 0 
  Um ou mais pais zerados
Linha 104: ID = 164, FT = 0, MT = 0 
  Um ou mais pais zerados
Linha 105: ID = 165, FT = 163, MT = 164 
Busca
Busca
Ponteiro f = 0xd179b0, m = 0xd17a10
Achei o 36 trio:
 c = 165, f = 163, m = 164 
Linha 106: ID = 168, FT = 0, MT = 0 
  Um ou mais pais zerados
Linha 107: ID = 169, FT = 0, MT = 0 
  Um ou mais pais zerados
Linha 108: ID = 170, FT = 168, MT = 169 
Busca
Busca
Ponteiro f = 0xd17ad0, m = 0xd17b30
Achei o 37 trio:
 c = 170, f = 168, m = 169 
Linha 109: ID = 171, FT = 0, MT = 0 
  Um ou mais pais zerados
Linha 110: ID = 172, FT = 0, MT = 0 
  Um ou mais pais zerados
Linha 111: ID = 173, FT = 171, MT = 172 
Busca
Busca
Ponteiro f = 0xd17bf0, m = 0xd17c50
Achei o 38 trio:
 c = 173, f = 171, m = 172 
Linha 112: ID = 174, FT = 0, MT = 0 
  Um ou mais pais zerados
Linha 113: ID = 175, FT = 0, MT = 0 
  Um ou mais pais zerados
Linha 114: ID = 176, FT = 174, MT = 175 
Busca
Busca
Ponteiro f = 0xd17d10, m = 0xd17d70
Achei o 39 trio:
 c = 176, f = 174, m = 175 
Linha 115: ID = 177, FT = 0, MT = 0 
  Um ou mais pais zerados
Linha 116: ID = 178, FT = 0, MT = 0 
  Um ou mais pais zerados
Linha 117: ID = 179, FT = 177, MT = 178 
Busca
Busca
Ponteiro f = 0xd17e30, m = 0xd17e90
Achei o 40 trio:
 c = 179, f = 177, m = 178 
Linha 118: ID = 180, FT = 0, MT = 0 
  Um ou mais pais zerados
Linha 119: ID = 181, FT = 0, MT = 0 
  Um ou mais pais zerados
Linha 120: ID = 182, FT = 180, MT = 181 
Busca
Busca
Ponteiro f = 0xd17f50, m = 0xd17fb0
Achei o 41 trio:
 c = 182, f = 180, m = 181 
Linha 121: ID = 183, FT = 0, MT = 0 
  Um ou mais pais zerados
Linha 122: ID = 184, FT = 0, MT = 0 
  Um ou mais pais zerados
Linha 123: ID = 185, FT = 183, MT = 184 
Busca
Busca
Ponteiro f = 0xd18070, m = 0xd180d0
Achei o 42 trio:
 c = 185, f = 183, m = 184 
Linha 124: ID = 186, FT = 0, MT = 0 
  Um ou mais pais zerados
Linha 125: ID = 187, FT = 0, MT = 0 
  Um ou mais pais zerados
Linha 126: ID = 188, FT = 186, MT = 187 
Busca
Busca
Ponteiro f = 0xd18190, m = 0xd181f0
Achei o 43 trio:
 c = 188, f = 186, m = 187 
Linha 127: ID = 189, FT = 0, MT = 0 
  Um ou mais pais zerados
Linha 128: ID = 190, FT = 0, MT = 0 
  Um ou mais pais zerados
Linha 129: ID = 191, FT = 189, MT = 190 
Busca
Busca
Ponteiro f = 0xd182b0, m = 0xd18310
Achei o 44 trio:
 c = 191, f = 189, m = 190 
Linha 130: ID = 202, FT = 0, MT = 0 
  Um ou mais pais zerados
Linha 131: ID = 203, FT = 0, MT = 0 
  Um ou mais pais zerados
Linha 132: ID = 204, FT = 202, MT = 203 
Busca
Busca
Ponteiro f = 0xd183d0, m = 0xd18430
Achei o 45 trio:
 c = 204, f = 202, m = 203 
Linha 133: ID = 204, FT = 0, MT = 0 
  Um ou mais pais zerados
Linha 134: ID = 205, FT = 0, MT = 0 
  Um ou mais pais zerados
Linha 135: ID = 206, FT = 205, MT = 204 
Busca
Busca
Ponteiro f = 0xd20c50, m = 0xd18490
Achei o 46 trio:
 c = 206, f = 205, m = 204 
Linha 136: ID = 207, FT = 202, MT = 203 
Busca
Busca
Ponteiro f = 0xd183d0, m = 0xd18430
Achei o 47 trio:
 c = 207, f = 202, m = 203 
Linha 137: ID = 208, FT = 202, MT = 203 
Busca
Busca
Ponteiro f = 0xd183d0, m = 0xd18430
Achei o 48 trio:
 c = 208, f = 202, m = 203 
Linha 138: ID = 212, FT = 0, MT = 0 
  Um ou mais pais zerados
Linha 139: ID = 213, FT = 0, MT = 0 
  Um ou mais pais zerados
Linha 140: ID = 214, FT = 212, MT = 213 
Busca
Busca
Ponteiro f = 0xd185b0, m = 0xd18610
Achei o 49 trio:
 c = 214, f = 212, m = 213 
Linha 141: ID = 217, FT = 0, MT = 0 
  Um ou mais pais zerados
Linha 142: ID = 218, FT = 0, MT = 0 
  Um ou mais pais zerados
Linha 143: ID = 219, FT = 217, MT = 218 
Busca
Busca
Ponteiro f = 0xd186d0, m = 0xd18730
Achei o 50 trio:
 c = 219, f = 217, m = 218 
Linha 144: ID = 227, FT = 0, MT = 0 
  Um ou mais pais zerados
Linha 145: ID = 228, FT = 0, MT = 0 
  Um ou mais pais zerados
Linha 146: ID = 229, FT = 227, MT = 228 
Busca
Busca
Ponteiro f = 0xd187f0, m = 0xd18850
Achei o 51 trio:
 c = 229, f = 227, m = 228 
Linha 147: ID = 243, FT = 0, MT = 0 
  Um ou mais pais zerados
Linha 148: ID = 244, FT = 0, MT = 0 
  Um ou mais pais zerados
Linha 149: ID = 245, FT = 243, MT = 244 
Busca
Busca
Ponteiro f = 0xd18910, m = 0xd18970
Achei o 52 trio:
 c = 245, f = 243, m = 244 
Linha 150: ID = 249, FT = 0, MT = 0 
  Um ou mais pais zerados
Linha 151: ID = 250, FT = 0, MT = 0 
  Um ou mais pais zerados
Linha 152: ID = 251, FT = 249, MT = 250 
Busca
Busca
Ponteiro f = 0xd18a30, m = 0xd18a90
Achei o 53 trio:
 c = 251, f = 249, m = 250 
Linha 153: ID = 257, FT = 0, MT = 0 
  Um ou mais pais zerados
Linha 154: ID = 258, FT = 0, MT = 0 
  Um ou mais pais zerados
Linha 155: ID = 259, FT = 257, MT = 258 
Busca
Busca
Ponteiro f = 0xd18b50, m = 0xd18bb0
Achei o 54 trio:
 c = 259, f = 257, m = 258 
Linha 156: ID = 263, FT = 0, MT = 0 
  Um ou mais pais zerados
Linha 157: ID = 264, FT = 0, MT = 0 
  Um ou mais pais zerados
Linha 158: ID = 265, FT = 263, MT = 264 
Busca
Busca
Ponteiro f = 0xd18c70, m = 0xd18cd0
Achei o 55 trio:
 c = 265, f = 263, m = 264 
Linha 159: ID = 267, FT = 0, MT = 0 
  Um ou mais pais zerados
Linha 160: ID = 268, FT = 0, MT = 0 
  Um ou mais pais zerados
Linha 161: ID = 269, FT = 267, MT = 268 
Busca
Busca
Ponteiro f = 0xd18d90, m = 0xd18df0
Achei o 56 trio:
 c = 269, f = 267, m = 268 
Linha 162: ID = 271, FT = 0, MT = 0 
  Um ou mais pais zerados
Linha 163: ID = 272, FT = 0, MT = 0 
  Um ou mais pais zerados
Linha 164: ID = 273, FT = 271, MT = 272 
Busca
Busca
Ponteiro f = 0xd18eb0, m = 0xd18f10
Achei o 57 trio:
 c = 273, f = 271, m = 272 
Linha 165: ID = 276, FT = 0, MT = 0 
  Um ou mais pais zerados
Linha 166: ID = 277, FT = 0, MT = 0 
  Um ou mais pais zerados
Linha 167: ID = 278, FT = 276, MT = 277 
Busca
Busca
Ponteiro f = 0xd18fd0, m = 0xd19030
Achei o 58 trio:
 c = 278, f = 276, m = 277 
Linha 168: ID = 279, FT = 0, MT = 0 
  Um ou mais pais zerados
Linha 169: ID = 280, FT = 0, MT = 0 
  Um ou mais pais zerados
Linha 170: ID = 281, FT = 279, MT = 280 
Busca
Busca
Ponteiro f = 0xd190f0, m = 0xd19150
Achei o 59 trio:
 c = 281, f = 279, m = 280 
Linha 171: ID = 283, FT = 0, MT = 0 
  Um ou mais pais zerados
Linha 172: ID = 284, FT = 0, MT = 0 
  Um ou mais pais zerados
Linha 173: ID = 285, FT = 284, MT = 283 
Busca
Busca
Ponteiro f = 0xd20dd0, m = 0xd20d70
Achei o 60 trio:
 c = 285, f = 284, m = 283 
Linha 174: ID = 290, FT = 0, MT = 0 
  Um ou mais pais zerados
Linha 175: ID = 291, FT = 0, MT = 0 
  Um ou mais pais zerados
Linha 176: ID = 292, FT = 290, MT = 291 
Busca
Busca
Ponteiro f = 0xd19210, m = 0xd19270
Achei o 61 trio:
 c = 292, f = 290, m = 291 
Linha 177: ID = 294, FT = 0, MT = 0 
  Um ou mais pais zerados
Linha 178: ID = 295, FT = 0, MT = 0 
  Um ou mais pais zerados
Linha 179: ID = 296, FT = 294, MT = 295 
Busca
Busca
Ponteiro f = 0xd19330, m = 0xd19390
Achei o 62 trio:
 c = 296, f = 294, m = 295 
Linha 180: ID = 306, FT = 0, MT = 0 
  Um ou mais pais zerados
Linha 181: ID = 307, FT = 0, MT = 0 
  Um ou mais pais zerados
Linha 182: ID = 308, FT = 306, MT = 307 
Busca
Busca
Ponteiro f = 0xd19450, m = 0xd194b0
Achei o 63 trio:
 c = 308, f = 306, m = 307 
Linha 183: ID = 316, FT = 0, MT = 0 
  Um ou mais pais zerados
Linha 184: ID = 317, FT = 0, MT = 0 
  Um ou mais pais zerados
Linha 185: ID = 318, FT = 316, MT = 317 
Busca
Busca
Ponteiro f = 0xd19570, m = 0xd195d0
Achei o 64 trio:
 c = 318, f = 316, m = 317 
Linha 186: ID = 320, FT = 0, MT = 0 
  Um ou mais pais zerados
Linha 187: ID = 321, FT = 0, MT = 0 
  Um ou mais pais zerados
Linha 188: ID = 322, FT = 320, MT = 321 
Busca
Busca
Ponteiro f = 0xd19690, m = 0xd196f0
Achei o 65 trio:
 c = 322, f = 320, m = 321 
Linha 189: ID = 323, FT = 0, MT = 0 
  Um ou mais pais zerados
Linha 190: ID = 324, FT = 0, MT = 0 
  Um ou mais pais zerados
Linha 191: ID = 325, FT = 323, MT = 324 
Busca
Busca
Ponteiro f = 0xd197b0, m = 0xd19810
Achei o 66 trio:
 c = 325, f = 323, m = 324 
Linha 192: ID = 326, FT = 0, MT = 0 
  Um ou mais pais zerados
Linha 193: ID = 327, FT = 0, MT = 0 
  Um ou mais pais zerados
Linha 194: ID = 328, FT = 326, MT = 327 
Busca
Busca
Ponteiro f = 0xd198d0, m = 0xd19930
Achei o 67 trio:
 c = 328, f = 326, m = 327 
Linha 195: ID = 333, FT = 0, MT = 0 
  Um ou mais pais zerados
Linha 196: ID = 334, FT = 0, MT = 0 
  Um ou mais pais zerados
Linha 197: ID = 335, FT = 333, MT = 334 
Busca
Busca
Ponteiro f = 0xd199f0, m = 0xd19a50
Achei o 68 trio:
 c = 335, f = 333, m = 334 
Linha 198: ID = 341, FT = 0, MT = 0 
  Um ou mais pais zerados
Linha 199: ID = 342, FT = 0, MT = 0 
  Um ou mais pais zerados
Linha 200: ID = 343, FT = 341, MT = 342 
Busca
Busca
Ponteiro f = 0xd19b10, m = 0xd19b70
Achei o 69 trio:
 c = 343, f = 341, m = 342 
Linha 201: ID = 346, FT = 0, MT = 0 
  Um ou mais pais zerados
Linha 202: ID = 347, FT = 0, MT = 0 
  Um ou mais pais zerados
Linha 203: ID = 348, FT = 346, MT = 347 
Busca
Busca
Ponteiro f = 0xd19c30, m = 0xd19c90
Achei o 70 trio:
 c = 348, f = 346, m = 347 
Linha 204: ID = 349, FT = 0, MT = 0 
  Um ou mais pais zerados
Linha 205: ID = 350, FT = 0, MT = 0 
  Um ou mais pais zerados
Linha 206: ID = 351, FT = 349, MT = 350 
Busca
Busca
Ponteiro f = 0xd19d50, m = 0xd19db0
Achei o 71 trio:
 c = 351, f = 349, m = 350 
Linha 207: ID = 353, FT = 0, MT = 0 
  Um ou mais pais zerados
Linha 208: ID = 354, FT = 0, MT = 0 
  Um ou mais pais zerados
Linha 209: ID = 355, FT = 353, MT = 354 
Busca
Busca
Ponteiro f = 0xd19e70, m = 0xd19ed0
Achei o 72 trio:
 c = 355, f = 353, m = 354 
Linha 210: ID = 357, FT = 0, MT = 0 
  Um ou mais pais zerados
Linha 211: ID = 358, FT = 0, MT = 0 
  Um ou mais pais zerados
Linha 212: ID = 359, FT = 357, MT = 358 
Busca
Busca
Ponteiro f = 0xd19f90, m = 0xd19ff0
Achei o 73 trio:
 c = 359, f = 357, m = 358 
Linha 213: ID = 372, FT = 0, MT = 0 
  Um ou mais pais zerados
Linha 214: ID = 373, FT = 0, MT = 0 
  Um ou mais pais zerados
Linha 215: ID = 374, FT = 372, MT = 373 
Busca
Busca
Ponteiro f = 0xd1a0b0, m = 0xd1a110
Achei o 74 trio:
 c = 374, f = 372, m = 373 
Linha 216: ID = 376, FT = 0, MT = 0 
  Um ou mais pais zerados
Linha 217: ID = 377, FT = 0, MT = 0 
  Um ou mais pais zerados
Linha 218: ID = 378, FT = 376, MT = 377 
Busca
Busca
Ponteiro f = 0xd1a1d0, m = 0xd1a230
Achei o 75 trio:
 c = 378, f = 376, m = 377 
Linha 219: ID = 381, FT = 0, MT = 0 
  Um ou mais pais zerados
Linha 220: ID = 382, FT = 0, MT = 0 
  Um ou mais pais zerados
Linha 221: ID = 383, FT = 381, MT = 382 
Busca
Busca
Ponteiro f = 0xd1a2f0, m = 0xd1a350
Achei o 76 trio:
 c = 383, f = 381, m = 382 
Linha 222: ID = 384, FT = 0, MT = 0 
  Um ou mais pais zerados
Linha 223: ID = 385, FT = 0, MT = 0 
  Um ou mais pais zerados
Linha 224: ID = 386, FT = 384, MT = 385 
Busca
Busca
Ponteiro f = 0xd1a410, m = 0xd1a470
Achei o 77 trio:
 c = 386, f = 384, m = 385 
Linha 225: ID = 399, FT = 0, MT = 0 
  Um ou mais pais zerados
Linha 226: ID = 400, FT = 0, MT = 0 
  Um ou mais pais zerados
Linha 227: ID = 401, FT = 0, MT = 0 
  Um ou mais pais zerados
Linha 228: ID = 402, FT = 399, MT = 400 
Busca
Busca
Ponteiro f = 0xd1a530, m = 0xd1a590
Achei o 78 trio:
 c = 402, f = 399, m = 400 
Linha 229: ID = 402, FT = 0, MT = 0 
  Um ou mais pais zerados
Linha 230: ID = 403, FT = 401, MT = 402 
Busca
Busca
Ponteiro f = 0xd20e90, m = 0xd1a5f0
Achei o 79 trio:
 c = 403, f = 401, m = 402 
Linha 231: ID = 421, FT = 0, MT = 0 
  Um ou mais pais zerados
Linha 232: ID = 422, FT = 0, MT = 0 
  Um ou mais pais zerados
Linha 233: ID = 423, FT = 421, MT = 422 
Busca
Busca
Ponteiro f = 0xd1a650, m = 0xd1a6b0
Achei o 80 trio:
 c = 423, f = 421, m = 422 
Linha 234: ID = 424, FT = 0, MT = 0 
  Um ou mais pais zerados
Linha 235: ID = 425, FT = 0, MT = 0 
  Um ou mais pais zerados
Linha 236: ID = 426, FT = 424, MT = 425 
Busca
Busca
Ponteiro f = 0xd1a770, m = 0xd1a7d0
Achei o 81 trio:
 c = 426, f = 424, m = 425 
Linha 237: ID = 429, FT = 0, MT = 0 
  Um ou mais pais zerados
Linha 238: ID = 430, FT = 0, MT = 0 
  Um ou mais pais zerados
Linha 239: ID = 431, FT = 429, MT = 430 
Busca
Busca
Ponteiro f = 0xd1a890, m = 0xd1a8f0
Achei o 82 trio:
 c = 431, f = 429, m = 430 
Linha 240: ID = 453, FT = 0, MT = 0 
  Um ou mais pais zerados
Linha 241: ID = 454, FT = 0, MT = 0 
  Um ou mais pais zerados
Linha 242: ID = 455, FT = 453, MT = 454 
Busca
Busca
Ponteiro f = 0xd1a9b0, m = 0xd1aa10
Achei o 83 trio:
 c = 455, f = 453, m = 454 
Linha 243: ID = 493, FT = 0, MT = 0 
  Um ou mais pais zerados
Linha 244: ID = 494, FT = 0, MT = 0 
  Um ou mais pais zerados
Linha 245: ID = 495, FT = 493, MT = 494 
Busca
Busca
Ponteiro f = 0xd1aad0, m = 0xd1ab30
Achei o 84 trio:
 c = 495, f = 493, m = 494 
Linha 246: ID = 496, FT = 0, MT = 0 
  Um ou mais pais zerados
Linha 247: ID = 497, FT = 0, MT = 0 
  Um ou mais pais zerados
Linha 248: ID = 498, FT = 496, MT = 497 
Busca
Busca
Ponteiro f = 0xd1abf0, m = 0xd1ac50
Achei o 85 trio:
 c = 498, f = 496, m = 497 
Linha 249: ID = 499, FT = 0, MT = 0 
  Um ou mais pais zerados
Linha 250: ID = 500, FT = 0, MT = 0 
  Um ou mais pais zerados
Linha 251: ID = 501, FT = 499, MT = 500 
Busca
Busca
Ponteiro f = 0xd1ad10, m = 0xd1ad70
Achei o 86 trio:
 c = 501, f = 499, m = 500 
Linha 252: ID = 502, FT = 0, MT = 0 
  Um ou mais pais zerados
Linha 253: ID = 503, FT = 0, MT = 0 
  Um ou mais pais zerados
Linha 254: ID = 504, FT = 502, MT = 503 
Busca
Busca
Ponteiro f = 0xd1ae30, m = 0xd1ae90
Achei o 87 trio:
 c = 504, f = 502, m = 503 
Linha 255: ID = 516, FT = 0, MT = 0 
  Um ou mais pais zerados
Linha 256: ID = 517, FT = 0, MT = 0 
  Um ou mais pais zerados
Linha 257: ID = 518, FT = 516, MT = 517 
Busca
Busca
Ponteiro f = 0xd1af50, m = 0xd1afb0
Achei o 88 trio:
 c = 518, f = 516, m = 517 
Linha 258: ID = 541, FT = 0, MT = 0 
  Um ou mais pais zerados
Linha 259: ID = 542, FT = 0, MT = 0 
  Um ou mais pais zerados
Linha 260: ID = 543, FT = 541, MT = 542 
Busca
Busca
Ponteiro f = 0xd1b070, m = 0xd1b0d0
Achei o 89 trio:
 c = 543, f = 541, m = 542 
Linha 261: ID = 550, FT = 0, MT = 0 
  Um ou mais pais zerados
Linha 262: ID = 551, FT = 0, MT = 0 
  Um ou mais pais zerados
Linha 263: ID = 552, FT = 550, MT = 551 
Busca
Busca
Ponteiro f = 0xd1b190, m = 0xd1b1f0
Achei o 90 trio:
 c = 552, f = 550, m = 551 
Linha 264: ID = 555, FT = 0, MT = 0 
  Um ou mais pais zerados
Linha 265: ID = 556, FT = 0, MT = 0 
  Um ou mais pais zerados
Linha 266: ID = 557, FT = 555, MT = 556 
Busca
Busca
Ponteiro f = 0xd1b2b0, m = 0xd1b310
Achei o 91 trio:
 c = 557, f = 555, m = 556 
Linha 267: ID = 562, FT = 0, MT = 0 
  Um ou mais pais zerados
Linha 268: ID = 563, FT = 0, MT = 0 
  Um ou mais pais zerados
Linha 269: ID = 564, FT = 562, MT = 563 
Busca
Busca
Ponteiro f = 0xd20fb0, m = 0xd21010
Achei o 92 trio:
 c = 564, f = 562, m = 563 
Linha 270: ID = 569, FT = 0, MT = 0 
  Um ou mais pais zerados
Linha 271: ID = 570, FT = 0, MT = 0 
  Um ou mais pais zerados
Linha 272: ID = 571, FT = 569, MT = 570 
Busca
Busca
Ponteiro f = 0xd1b3d0, m = 0xd1b430
Achei o 93 trio:
 c = 571, f = 569, m = 570 
Linha 273: ID = 572, FT = 0, MT = 0 
  Um ou mais pais zerados
Linha 274: ID = 573, FT = 0, MT = 0 
  Um ou mais pais zerados
Linha 275: ID = 574, FT = 572, MT = 573 
Busca
Busca
Ponteiro f = 0xd1b4f0, m = 0xd1b550
Achei o 94 trio:
 c = 574, f = 572, m = 573 
Linha 276: ID = 580, FT = 0, MT = 0 
  Um ou mais pais zerados
Linha 277: ID = 581, FT = 0, MT = 0 
  Um ou mais pais zerados
Linha 278: ID = 582, FT = 580, MT = 581 
Busca
Busca
Ponteiro f = 0xd1b610, m = 0xd1b670
Achei o 95 trio:
 c = 582, f = 580, m = 581 
Linha 279: ID = 584, FT = 0, MT = 0 
  Um ou mais pais zerados
Linha 280: ID = 585, FT = 0, MT = 0 
  Um ou mais pais zerados
Linha 281: ID = 586, FT = 584, MT = 585 
Busca
Busca
Ponteiro f = 0xd1b730, m = 0xd1b790
Achei o 96 trio:
 c = 586, f = 584, m = 585 
Linha 282: ID = 590, FT = 0, MT = 0 
  Um ou mais pais zerados
Linha 283: ID = 591, FT = 0, MT = 0 
  Um ou mais pais zerados
Linha 284: ID = 592, FT = 590, MT = 591 
Busca
Busca
Ponteiro f = 0xd1b850, m = 0xd1b8b0
Achei o 97 trio:
 c = 592, f = 590, m = 591 
Linha 285: ID = 599, FT = 0, MT = 0 
  Um ou mais pais zerados
Linha 286: ID = 600, FT = 0, MT = 0 
  Um ou mais pais zerados
Linha 287: ID = 601, FT = 599, MT = 600 
Busca
Busca
Ponteiro f = 0xd1b970, m = 0xd1b9d0
Achei o 98 trio:
 c = 601, f = 599, m = 600 
Linha 288: ID = 602, FT = 0, MT = 0 
  Um ou mais pais zerados
Linha 289: ID = 603, FT = 0, MT = 0 
  Um ou mais pais zerados
Linha 290: ID = 604, FT = 602, MT = 603 
Busca
Busca
Ponteiro f = 0xd1ba90, m = 0xd1baf0
Achei o 99 trio:
 c = 604, f = 602, m = 603 
Linha 291: ID = 605, FT = 0, MT = 0 
  Um ou mais pais zerados
Linha 292: ID = 606, FT = 0, MT = 0 
  Um ou mais pais zerados
Linha 293: ID = 607, FT = 605, MT = 606 
Busca
Busca
Ponteiro f = 0xd1bbb0, m = 0xd1bc10
Achei o 100 trio:
 c = 607, f = 605, m = 606 
Linha 294: ID = 609, FT = 0, MT = 0 
  Um ou mais pais zerados
Linha 295: ID = 610, FT = 0, MT = 0 
  Um ou mais pais zerados
Linha 296: ID = 611, FT = 609, MT = 610 
Busca
Busca
Ponteiro f = 0xd1bcd0, m = 0xd1bd30
Achei o 101 trio:
 c = 611, f = 609, m = 610 
Linha 297: ID = 625, FT = 0, MT = 0 
  Um ou mais pais zerados
Linha 298: ID = 626, FT = 0, MT = 0 
  Um ou mais pais zerados
Linha 299: ID = 627, FT = 625, MT = 626 
Busca
Busca
Ponteiro f = 0xd1bdf0, m = 0xd1be50
Achei o 102 trio:
 c = 627, f = 625, m = 626 
Linha 300: ID = 628, FT = 0, MT = 0 
  Um ou mais pais zerados
Linha 301: ID = 629, FT = 0, MT = 0 
  Um ou mais pais zerados
Linha 302: ID = 630, FT = 628, MT = 629 
Busca
Busca
Ponteiro f = 0xd1bf10, m = 0xd1bf70
Achei o 103 trio:
 c = 630, f = 628, m = 629 
Linha 303: ID = 642, FT = 0, MT = 0 
  Um ou mais pais zerados
Linha 304: ID = 643, FT = 0, MT = 0 
  Um ou mais pais zerados
Linha 305: ID = 644, FT = 642, MT = 643 
Busca
Busca
Ponteiro f = 0xd1c030, m = 0xd1c090
Achei o 104 trio:
 c = 644, f = 642, m = 643 
Linha 306: ID = 656, FT = 0, MT = 0 
  Um ou mais pais zerados
Linha 307: ID = 657, FT = 0, MT = 0 
  Um ou mais pais zerados
Linha 308: ID = 658, FT = 656, MT = 657 
Busca
Busca
Ponteiro f = 0xd1c150, m = 0xd1c1b0
Achei o 105 trio:
 c = 658, f = 656, m = 657 
Linha 309: ID = 659, FT = 0, MT = 0 
  Um ou mais pais zerados
Linha 310: ID = 660, FT = 0, MT = 0 
  Um ou mais pais zerados
Linha 311: ID = 661, FT = 659, MT = 660 
Busca
Busca
Ponteiro f = 0xd1c270, m = 0xd1c2d0
Achei o 106 trio:
 c = 661, f = 659, m = 660 
Linha 312: ID = 662, FT = 0, MT = 0 
  Um ou mais pais zerados
Linha 313: ID = 663, FT = 0, MT = 0 
  Um ou mais pais zerados
Linha 314: ID = 664, FT = 662, MT = 663 
Busca
Busca
Ponteiro f = 0xd1c390, m = 0xd1c3f0
Achei o 107 trio:
 c = 664, f = 662, m = 663 
Linha 315: ID = 672, FT = 0, MT = 0 
  Um ou mais pais zerados
Linha 316: ID = 673, FT = 0, MT = 0 
  Um ou mais pais zerados
Linha 317: ID = 674, FT = 672, MT = 673 
Busca
Busca
Ponteiro f = 0xd1c4b0, m = 0xd1c510
Achei o 108 trio:
 c = 674, f = 672, m = 673 
Linha 318: ID = 675, FT = 0, MT = 0 
  Um ou mais pais zerados
Linha 319: ID = 676, FT = 0, MT = 0 
  Um ou mais pais zerados
Linha 320: ID = 677, FT = 675, MT = 676 
Busca
Busca
Ponteiro f = 0xd1c5d0, m = 0xd1c630
Achei o 109 trio:
 c = 677, f = 675, m = 676 
Linha 321: ID = 678, FT = 0, MT = 0 
  Um ou mais pais zerados
Linha 322: ID = 679, FT = 0, MT = 0 
  Um ou mais pais zerados
Linha 323: ID = 680, FT = 678, MT = 679 
Busca
Busca
Ponteiro f = 0xd1c6f0, m = 0xd1c750
Achei o 110 trio:
 c = 680, f = 678, m = 679 
Linha 324: ID = 689, FT = 0, MT = 0 
  Um ou mais pais zerados
Linha 325: ID = 690, FT = 0, MT = 0 
  Um ou mais pais zerados
Linha 326: ID = 691, FT = 689, MT = 690 
Busca
Busca
Ponteiro f = 0xd1c810, m = 0xd1c870
Achei o 111 trio:
 c = 691, f = 689, m = 690 
Linha 327: ID = 693, FT = 0, MT = 0 
  Um ou mais pais zerados
Linha 328: ID = 694, FT = 0, MT = 0 
  Um ou mais pais zerados
Linha 329: ID = 695, FT = 693, MT = 694 
Busca
Busca
Ponteiro f = 0xd1c930, m = 0xd1c990
Achei o 112 trio:
 c = 695, f = 693, m = 694 
Linha 330: ID = 696, FT = 0, MT = 0 
  Um ou mais pais zerados
Linha 331: ID = 697, FT = 0, MT = 0 
  Um ou mais pais zerados
Linha 332: ID = 698, FT = 696, MT = 697 
Busca
Busca
Ponteiro f = 0xd1ca50, m = 0xd1cab0
Achei o 113 trio:
 c = 698, f = 696, m = 697 
Linha 333: ID = 699, FT = 0, MT = 0 
  Um ou mais pais zerados
Linha 334: ID = 700, FT = 0, MT = 0 
  Um ou mais pais zerados
Linha 335: ID = 701, FT = 0, MT = 0 
  Um ou mais pais zerados
Linha 336: ID = 702, FT = 699, MT = 700 
Busca
Busca
Ponteiro f = 0xd1cb70, m = 0xd1cbd0
Achei o 114 trio:
 c = 702, f = 699, m = 700 
Linha 337: ID = 702, FT = 0, MT = 0 
  Um ou mais pais zerados
Linha 338: ID = 703, FT = 701, MT = 702 
Busca
Busca
Ponteiro f = 0xd210d0, m = 0xd1cc30
Achei o 115 trio:
 c = 703, f = 701, m = 702 
Linha 339: ID = 704, FT = 699, MT = 700 
Busca
Busca
Ponteiro f = 0xd1cb70, m = 0xd1cbd0
Achei o 116 trio:
 c = 704, f = 699, m = 700 
Linha 340: ID = 705, FT = 0, MT = 0 
  Um ou mais pais zerados
Linha 341: ID = 706, FT = 699, MT = 700 
Busca
Busca
Ponteiro f = 0xd1cb70, m = 0xd1cbd0
Achei o 117 trio:
 c = 706, f = 699, m = 700 
Linha 342: ID = 706, FT = 0, MT = 0 
  Um ou mais pais zerados
Linha 343: ID = 707, FT = 705, MT = 706 
Busca
Busca
Ponteiro f = 0xd21430, m = 0xd1ccf0
Achei o 118 trio:
 c = 707, f = 705, m = 706 
Linha 344: ID = 708, FT = 699, MT = 700 
Busca
Busca
Ponteiro f = 0xd1cb70, m = 0xd1cbd0
Achei o 119 trio:
 c = 708, f = 699, m = 700 
Linha 345: ID = 709, FT = 0, MT = 0 
  Um ou mais pais zerados
Linha 346: ID = 710, FT = 0, MT = 0 
  Um ou mais pais zerados
Linha 347: ID = 711, FT = 709, MT = 710 
Busca
Busca
Ponteiro f = 0xd1cdb0, m = 0xd1ce10
Achei o 120 trio:
 c = 711, f = 709, m = 710 
Linha 348: ID = 713, FT = 0, MT = 0 
  Um ou mais pais zerados
Linha 349: ID = 714, FT = 0, MT = 0 
  Um ou mais pais zerados
Linha 350: ID = 715, FT = 713, MT = 714 
Busca
Busca
Ponteiro f = 0xd1ced0, m = 0xd1cf30
Achei o 121 trio:
 c = 715, f = 713, m = 714 
Linha 351: ID = 716, FT = 0, MT = 0 
  Um ou mais pais zerados
Linha 352: ID = 717, FT = 0, MT = 0 
  Um ou mais pais zerados
Linha 353: ID = 718, FT = 716, MT = 717 
Busca
Busca
Ponteiro f = 0xd1cff0, m = 0xd1d050
Achei o 122 trio:
 c = 718, f = 716, m = 717 
Linha 354: ID = 719, FT = 0, MT = 0 
  Um ou mais pais zerados
Linha 355: ID = 720, FT = 0, MT = 0 
  Um ou mais pais zerados
Linha 356: ID = 721, FT = 719, MT = 720 
Busca
Busca
Ponteiro f = 0xd1d110, m = 0xd1d170
Achei o 123 trio:
 c = 721, f = 719, m = 720 
Linha 357: ID = 728, FT = 0, MT = 0 
  Um ou mais pais zerados
Linha 358: ID = 729, FT = 0, MT = 0 
  Um ou mais pais zerados
Linha 359: ID = 730, FT = 728, MT = 729 
Busca
Busca
Ponteiro f = 0xd1d230, m = 0xd1d290
Achei o 124 trio:
 c = 730, f = 728, m = 729 
Linha 360: ID = 755, FT = 0, MT = 0 
  Um ou mais pais zerados
Linha 361: ID = 756, FT = 0, MT = 0 
  Um ou mais pais zerados
Linha 362: ID = 757, FT = 755, MT = 756 
Busca
Busca
Ponteiro f = 0xd1d350, m = 0xd1d3b0
Achei o 125 trio:
 c = 757, f = 755, m = 756 
Linha 363: ID = 764, FT = 0, MT = 0 
  Um ou mais pais zerados
Linha 364: ID = 765, FT = 0, MT = 0 
  Um ou mais pais zerados
Linha 365: ID = 766, FT = 764, MT = 765 
Busca
Busca
Ponteiro f = 0xd1d470, m = 0xd1d4d0
Achei o 126 trio:
 c = 766, f = 764, m = 765 
Linha 366: ID = 767, FT = 0, MT = 0 
  Um ou mais pais zerados
Linha 367: ID = 768, FT = 0, MT = 0 
  Um ou mais pais zerados
Linha 368: ID = 769, FT = 767, MT = 768 
Busca
Busca
Ponteiro f = 0xd1d590, m = 0xd1d5f0
Achei o 127 trio:
 c = 769, f = 767, m = 768 
Linha 369: ID = 781, FT = 0, MT = 0 
  Um ou mais pais zerados
Linha 370: ID = 782, FT = 0, MT = 0 
  Um ou mais pais zerados
Linha 371: ID = 783, FT = 781, MT = 782 
Busca
Busca
Ponteiro f = 0xd1d6b0, m = 0xd1d710
Achei o 128 trio:
 c = 783, f = 781, m = 782 
Linha 372: ID = 795, FT = 0, MT = 0 
  Um ou mais pais zerados
Linha 373: ID = 796, FT = 0, MT = 0 
  Um ou mais pais zerados
Linha 374: ID = 797, FT = 795, MT = 796 
Busca
Busca
Ponteiro f = 0xd1d7d0, m = 0xd1d830
Achei o 129 trio:
 c = 797, f = 795, m = 796 
Linha 375: ID = 805, FT = 0, MT = 0 
  Um ou mais pais zerados
Linha 376: ID = 806, FT = 0, MT = 0 
  Um ou mais pais zerados
Linha 377: ID = 807, FT = 805, MT = 806 
Busca
Busca
Ponteiro f = 0xd1d8f0, m = 0xd1d950
Achei o 130 trio:
 c = 807, f = 805, m = 806 
Linha 378: ID = 809, FT = 0, MT = 0 
  Um ou mais pais zerados
Linha 379: ID = 810, FT = 0, MT = 0 
  Um ou mais pais zerados
Linha 380: ID = 811, FT = 809, MT = 810 
Busca
Busca
Ponteiro f = 0xd1da10, m = 0xd1da70
Achei o 131 trio:
 c = 811, f = 809, m = 810 
Linha 381: ID = 813, FT = 0, MT = 0 
  Um ou mais pais zerados
Linha 382: ID = 814, FT = 0, MT = 0 
  Um ou mais pais zerados
Linha 383: ID = 815, FT = 813, MT = 814 
Busca
Busca
Ponteiro f = 0xd1db30, m = 0xd1db90
Achei o 132 trio:
 c = 815, f = 813, m = 814 
Linha 384: ID = 815, FT = 0, MT = 0 
  Um ou mais pais zerados
Linha 385: ID = 816, FT = 0, MT = 0 
  Um ou mais pais zerados
Linha 386: ID = 817, FT = 816, MT = 815 
Busca
Busca
Ponteiro f = 0xd21250, m = 0xd1dbf0
Achei o 133 trio:
 c = 817, f = 816, m = 815 
Linha 387: ID = 829, FT = 0, MT = 0 
  Um ou mais pais zerados
Linha 388: ID = 830, FT = 0, MT = 0 
  Um ou mais pais zerados
Linha 389: ID = 831, FT = 829, MT = 830 
Busca
Busca
Ponteiro f = 0xd1dc50, m = 0xd1dcb0
Achei o 134 trio:
 c = 831, f = 829, m = 830 
Linha 390: ID = 833, FT = 0, MT = 0 
  Um ou mais pais zerados
Linha 391: ID = 834, FT = 0, MT = 0 
  Um ou mais pais zerados
Linha 392: ID = 835, FT = 833, MT = 834 
Busca
Busca
Ponteiro f = 0xd1dd70, m = 0xd1ddd0
Achei o 135 trio:
 c = 835, f = 833, m = 834 
Linha 393: ID = 836, FT = 0, MT = 0 
  Um ou mais pais zerados
Linha 394: ID = 837, FT = 0, MT = 0 
  Um ou mais pais zerados
Linha 395: ID = 838, FT = 836, MT = 837 
Busca
Busca
Ponteiro f = 0xd1de90, m = 0xd1def0
Achei o 136 trio:
 c = 838, f = 836, m = 837 
Linha 396: ID = 856, FT = 0, MT = 0 
  Um ou mais pais zerados
Linha 397: ID = 857, FT = 0, MT = 0 
  Um ou mais pais zerados
Linha 398: ID = 858, FT = 856, MT = 857 
Busca
Busca
Ponteiro f = 0xd1dfb0, m = 0xd1e010
Achei o 137 trio:
 c = 858, f = 856, m = 857 
Linha 399: ID = 859, FT = 0, MT = 0 
  Um ou mais pais zerados
Linha 400: ID = 860, FT = 0, MT = 0 
  Um ou mais pais zerados
Linha 401: ID = 861, FT = 859, MT = 860 
Busca
Busca
Ponteiro f = 0xd1e0d0, m = 0xd1e130
Achei o 138 trio:
 c = 861, f = 859, m = 860 
Linha 402: ID = 862, FT = 0, MT = 0 
  Um ou mais pais zerados
Linha 403: ID = 863, FT = 0, MT = 0 
  Um ou mais pais zerados
Linha 404: ID = 864, FT = 862, MT = 863 
Busca
Busca
Ponteiro f = 0xd1e1f0, m = 0xd1e250
Achei o 139 trio:
 c = 864, f = 862, m = 863 
Linha 405: ID = 876, FT = 877, MT = 878 
Busca
Busca
Ponteiro f = 0xd1e310, m = 0xd1e370
Achei o 140 trio:
 c = 876, f = 877, m = 878 
Linha 406: ID = 877, FT = 0, MT = 0 
  Um ou mais pais zerados
Linha 407: ID = 878, FT = 0, MT = 0 
  Um ou mais pais zerados
Linha 408: ID = 880, FT = 881, MT = 882 
Busca
Busca
Ponteiro f = 0xd1e430, m = 0xd1e490
Achei o 141 trio:
 c = 880, f = 881, m = 882 
Linha 409: ID = 881, FT = 0, MT = 0 
  Um ou mais pais zerados
Linha 410: ID = 882, FT = 0, MT = 0 
  Um ou mais pais zerados
Linha 411: ID = 905, FT = 0, MT = 0 
  Um ou mais pais zerados
Linha 412: ID = 906, FT = 0, MT = 0 
  Um ou mais pais zerados
Linha 413: ID = 907, FT = 905, MT = 906 
Busca
Busca
Ponteiro f = 0xd1e550, m = 0xd1e5b0
Achei o 142 trio:
 c = 907, f = 905, m = 906 
Linha 414: ID = 915, FT = 0, MT = 0 
  Um ou mais pais zerados
Linha 415: ID = 916, FT = 0, MT = 0 
  Um ou mais pais zerados
Linha 416: ID = 917, FT = 915, MT = 916 
Busca
Busca
Ponteiro f = 0xd1e670, m = 0xd1e6d0
Achei o 143 trio:
 c = 917, f = 915, m = 916 
Linha 417: ID = 921, FT = 0, MT = 0 
  Um ou mais pais zerados
Linha 418: ID = 922, FT = 0, MT = 0 
  Um ou mais pais zerados
Linha 419: ID = 923, FT = 921, MT = 922 
Busca
Busca
Ponteiro f = 0xd1e790, m = 0xd1e7f0
Achei o 144 trio:
 c = 923, f = 921, m = 922 
Linha 420: ID = 924, FT = 0, MT = 0 
  Um ou mais pais zerados
Linha 421: ID = 925, FT = 0, MT = 0 
  Um ou mais pais zerados
Linha 422: ID = 926, FT = 924, MT = 925 
Busca
Busca
Ponteiro f = 0xd1e8b0, m = 0xd1e910
Achei o 145 trio:
 c = 926, f = 924, m = 925 
Linha 423: ID = 933, FT = 0, MT = 0 
  Um ou mais pais zerados
Linha 424: ID = 934, FT = 0, MT = 0 
  Um ou mais pais zerados
Linha 425: ID = 935, FT = 933, MT = 934 
Busca
Busca
Ponteiro f = 0xd1e9d0, m = 0xd1ea30
Achei o 146 trio:
 c = 935, f = 933, m = 934 
Linha 426: ID = 936, FT = 0, MT = 0 
  Um ou mais pais zerados
Linha 427: ID = 937, FT = 0, MT = 0 
  Um ou mais pais zerados
Linha 428: ID = 938, FT = 936, MT = 937 
Busca
Busca
Ponteiro f = 0xd1eaf0, m = 0xd1eb50
Achei o 147 trio:
 c = 938, f = 936, m = 937 
Linha 429: ID = 939, FT = 0, MT = 0 
  Um ou mais pais zerados
Linha 430: ID = 940, FT = 0, MT = 0 
  Um ou mais pais zerados
Linha 431: ID = 941, FT = 0, MT = 0 
  Um ou mais pais zerados
Linha 432: ID = 942, FT = 939, MT = 940 
Busca
Busca
Ponteiro f = 0xd1ec10, m = 0xd1ec70
Achei o 148 trio:
 c = 942, f = 939, m = 940 
Linha 433: ID = 942, FT = 0, MT = 0 
  Um ou mais pais zerados
Linha 434: ID = 943, FT = 939, MT = 940 
Busca
Busca
Ponteiro f = 0xd1ec10, m = 0xd1ec70
Achei o 149 trio:
 c = 943, f = 939, m = 940 
Linha 435: ID = 944, FT = 941, MT = 942 
Busca
Busca
Ponteiro f = 0xd21310, m = 0xd1ecd0
Achei o 150 trio:
 c = 944, f = 941, m = 942 
Linha 436: ID = 948, FT = 0, MT = 0 
  Um ou mais pais zerados
Linha 437: ID = 949, FT = 0, MT = 0 
  Um ou mais pais zerados
Linha 438: ID = 950, FT = 948, MT = 949 
Busca
Busca
Ponteiro f = 0xd1ed90, m = 0xd1edf0
Achei o 151 trio:
 c = 950, f = 948, m = 949 
Linha 439: ID = 951, FT = 948, MT = 949 
Busca
Busca
Ponteiro f = 0xd1ed90, m = 0xd1edf0
Achei o 152 trio:
 c = 951, f = 948, m = 949 
Linha 440: ID = 965, FT = 0, MT = 0 
  Um ou mais pais zerados
Linha 441: ID = 966, FT = 0, MT = 0 
  Um ou mais pais zerados
Linha 442: ID = 967, FT = 965, MT = 966 
Busca
Busca
Ponteiro f = 0xd1ef10, m = 0xd1ef70
Achei o 153 trio:
 c = 967, f = 965, m = 966 
Linha 443: ID = 968, FT = 0, MT = 0 
  Um ou mais pais zerados
Linha 444: ID = 969, FT = 0, MT = 0 
  Um ou mais pais zerados
Linha 445: ID = 970, FT = 968, MT = 969 
Busca
Busca
Ponteiro f = 0xd1f030, m = 0xd1f090
Achei o 154 trio:
 c = 970, f = 968, m = 969 
Linha 446: ID = 972, FT = 0, MT = 0 
  Um ou mais pais zerados
Linha 447: ID = 973, FT = 0, MT = 0 
  Um ou mais pais zerados
Linha 448: ID = 974, FT = 972, MT = 973 
Busca
Busca
Ponteiro f = 0xd1f150, m = 0xd1f1b0
Achei o 155 trio:
 c = 974, f = 972, m = 973 
Linha 449: ID = 980, FT = 0, MT = 0 
  Um ou mais pais zerados
Linha 450: ID = 981, FT = 0, MT = 0 
  Um ou mais pais zerados
Linha 451: ID = 982, FT = 980, MT = 981 
Busca
Busca
Ponteiro f = 0xd1f270, m = 0xd1f2d0
Achei o 156 trio:
 c = 982, f = 980, m = 981 
Linha 452: ID = 983, FT = 0, MT = 0 
  Um ou mais pais zerados
Linha 453: ID = 984, FT = 0, MT = 0 
  Um ou mais pais zerados
Linha 454: ID = 985, FT = 983, MT = 984 
Busca
Busca
Ponteiro f = 0xd1f390, m = 0xd1f3f0
Achei o 157 trio:
 c = 985, f = 983, m = 984 
Linha 455: ID = 995, FT = 0, MT = 0 
  Um ou mais pais zerados
Linha 456: ID = 996, FT = 0, MT = 0 
  Um ou mais pais zerados
Linha 457: ID = 997, FT = 995, MT = 996 
Busca
Busca
Ponteiro f = 0xd1f4b0, m = 0xd1f510
Achei o 158 trio:
 c = 997, f = 995, m = 996 
Linha 458: ID = 999, FT = 0, MT = 0 
  Um ou mais pais zerados
Linha 459: ID = 1000, FT = 0, MT = 0 
  Um ou mais pais zerados
Linha 460: ID = 1001, FT = 999, MT = 1000 
Busca
Busca
Ponteiro f = 0xd1f5d0, m = 0xd1f630
Achei o 159 trio:
 c = 1001, f = 999, m = 1000 
Linha 461: ID = 1021, FT = 0, MT = 0 
  Um ou mais pais zerados
Linha 462: ID = 1022, FT = 0, MT = 0 
  Um ou mais pais zerados
Linha 463: ID = 1023, FT = 1021, MT = 1022 
Busca
Busca
Ponteiro f = 0xd1f6f0, m = 0xd1f750
Achei o 160 trio:
 c = 1023, f = 1021, m = 1022 
Linha 464: ID = 1035, FT = 0, MT = 0 
  Um ou mais pais zerados
Linha 465: ID = 1036, FT = 0, MT = 0 
  Um ou mais pais zerados
Linha 466: ID = 1037, FT = 1035, MT = 1036 
Busca
Busca
Ponteiro f = 0xd1f810, m = 0xd1f870
Achei o 161 trio:
 c = 1037, f = 1035, m = 1036 
Linha 467: ID = 1043, FT = 0, MT = 0 
  Um ou mais pais zerados
Linha 468: ID = 1044, FT = 0, MT = 0 
  Um ou mais pais zerados
Linha 469: ID = 1045, FT = 1043, MT = 1044 
Busca
Busca
Ponteiro f = 0xd1f930, m = 0xd1f990
Achei o 162 trio:
 c = 1045, f = 1043, m = 1044 
Linha 470: ID = 1046, FT = 1043, MT = 1044 
Busca
Busca
Ponteiro f = 0xd1f930, m = 0xd1f990
Achei o 163 trio:
 c = 1046, f = 1043, m = 1044 
Linha 471: ID = 1047, FT = 0, MT = 0 
  Um ou mais pais zerados
Linha 472: ID = 1048, FT = 0, MT = 0 
  Um ou mais pais zerados
Linha 473: ID = 1049, FT = 1047, MT = 1048 
Busca
Busca
Ponteiro f = 0xd1fab0, m = 0xd1fb10
Achei o 164 trio:
 c = 1049, f = 1047, m = 1048 
Linha 474: ID = 1050, FT = 0, MT = 0 
  Um ou mais pais zerados
Linha 475: ID = 1051, FT = 0, MT = 0 
  Um ou mais pais zerados
Linha 476: ID = 1052, FT = 1050, MT = 1051 
Busca
Busca
Ponteiro f = 0xd1fbd0, m = 0xd1fc30
Achei o 165 trio:
 c = 1052, f = 1050, m = 1051 
Linha 477: ID = 1055, FT = 0, MT = 0 
  Um ou mais pais zerados
Linha 478: ID = 1056, FT = 0, MT = 0 
  Um ou mais pais zerados
Linha 479: ID = 1057, FT = 1055, MT = 1056 
Busca
Busca
Ponteiro f = 0xd1fcf0, m = 0xd1fd50
Achei o 166 trio:
 c = 1057, f = 1055, m = 1056 
Linha 480: ID = 1059, FT = 1055, MT = 1056 
Busca
Busca
Ponteiro f = 0xd1fcf0, m = 0xd1fd50
Achei o 167 trio:
 c = 1059, f = 1055, m = 1056 
Linha 481: ID = 1069, FT = 0, MT = 0 
  Um ou mais pais zerados
Linha 482: ID = 1070, FT = 0, MT = 0 
  Um ou mais pais zerados
Linha 483: ID = 1071, FT = 1069, MT = 1070 
Busca
Busca
Ponteiro f = 0xd1fe70, m = 0xd1fed0
Achei o 168 trio:
 c = 1071, f = 1069, m = 1070 
Linha 484: ID = 1078, FT = 0, MT = 0 
  Um ou mais pais zerados
Linha 485: ID = 1079, FT = 0, MT = 0 
  Um ou mais pais zerados
Linha 486: ID = 1080, FT = 1078, MT = 1079 
Busca
Busca
Ponteiro f = 0xd1ff90, m = 0xd1fff0
Achei o 169 trio:
 c = 1080, f = 1078, m = 1079 
Linha 487: ID = 1088, FT = 0, MT = 0 
  Um ou mais pais zerados
Linha 488: ID = 1089, FT = 0, MT = 0 
  Um ou mais pais zerados
Linha 489: ID = 1090, FT = 1088, MT = 1089 
Busca
Busca
Ponteiro f = 0xd200b0, m = 0xd20110
Achei o 170 trio:
 c = 1090, f = 1088, m = 1089 
Linha 490: ID = 1098, FT = 0, MT = 0 
  Um ou mais pais zerados
Linha 491: ID = 1099, FT = 0, MT = 0 
  Um ou mais pais zerados
Linha 492: ID = 1100, FT = 1098, MT = 1099 
Busca
Busca
Ponteiro f = 0xd201d0, m = 0xd20230
Achei o 171 trio:
 c = 1100, f = 1098, m = 1099 
Linha 493: ID = 1104, FT = 0, MT = 0 
  Um ou mais pais zerados
Linha 494: ID = 1105, FT = 0, MT = 0 
  Um ou mais pais zerados
Linha 495: ID = 1106, FT = 1104, MT = 1105 
Busca
Busca
Ponteiro f = 0xd202f0, m = 0xd20350
Achei o 172 trio:
 c = 1106, f = 1104, m = 1105 
Linha 496: ID = 1107, FT = 1104, MT = 1105 
Busca
Busca
Ponteiro f = 0xd202f0, m = 0xd20350
Achei o 173 trio:
 c = 1107, f = 1104, m = 1105 
Linha 497: ID = 1117, FT = 0, MT = 0 
  Um ou mais pais zerados
Linha 498: ID = 1118, FT = 0, MT = 0 
  Um ou mais pais zerados
Linha 499: ID = 1119, FT = 1117, MT = 1118 
Busca
Busca
Ponteiro f = 0xd20470, m = 0xd204d0
Achei o 174 trio:
 c = 1119, f = 1117, m = 1118 
Linha 500: ID = 1122, FT = 0, MT = 0 
  Um ou mais pais zerados
Linha 501: ID = 1123, FT = 0, MT = 0 
  Um ou mais pais zerados
Linha 502: ID = 1124, FT = 1122, MT = 1123 
Busca
Busca
Ponteiro f = 0xd20590, m = 0xd205f0
Achei o 175 trio:
 c = 1124, f = 1122, m = 1123 
Linha 503: ID = 1150, FT = 0, MT = 0 
  Um ou mais pais zerados
Linha 504: ID = 1151, FT = 0, MT = 0 
  Um ou mais pais zerados
Linha 505: ID = 1152, FT = 1150, MT = 1151 
Busca
Busca
Ponteiro f = 0xd206b0, m = 0xd20710
Achei o 176 trio:
 c = 1152, f = 1150, m = 1151 
Linha 506: ID = 1155, FT = 0, MT = 0 
  Um ou mais pais zerados
Linha 507: ID = 1156, FT = 0, MT = 0 
  Um ou mais pais zerados
Linha 508: ID = 1157, FT = 1155, MT = 1156 
Busca
Busca
Ponteiro f = 0xd207d0, m = 0xd20830
Achei o 177 trio:
 c = 1157, f = 1155, m = 1156 
Linha 509: ID = 1171, FT = 0, MT = 0 
  Um ou mais pais zerados
Linha 510: ID = 1172, FT = 0, MT = 0 
  Um ou mais pais zerados
Linha 511: ID = 1173, FT = 1171, MT = 1172 
Busca
Busca
Ponteiro f = 0xd208f0, m = 0xd20950
Achei o 178 trio:
 c = 1173, f = 1171, m = 1172 
Linha 512: ID = 1176, FT = 0, MT = 0 
  Um ou mais pais zerados
Linha 513: ID = 1177, FT = 0, MT = 0 
  Um ou mais pais zerados
Linha 514: ID = 1178, FT = 1176, MT = 1177 
Busca
Busca
Ponteiro f = 0xd20a10, m = 0xd20a70
Achei o 179 trio:
 c = 1178, f = 1176, m = 1177 
Linha 515: ID = 1264, FT = 0, MT = 0 
  Um ou mais pais zerados
Linha 516: ID = 1265, FT = 0, MT = 0 
  Um ou mais pais zerados
Linha 517: ID = 1266, FT = 1264, MT = 1265 
Busca
Busca
Ponteiro f = 0xd20b30, m = 0xd20b90
Achei o 180 trio:
 c = 1266, f = 1264, m = 1265 
Fiz free
