Input file: La.ped;
Output file: out1.txt;
Covariables: 0;
Markers: 10;
Not Available: [.];
Separated: [ ].
Genotypes in [1] columns.
Comand line ok.
Num_col_fixo = 26
Arquivo aberto
I FINISHED TO READ THE ENTRY, with 518 individuals
rs4646536: 	 major = 1, minor = 3.
rs842647: 	 major = 1, minor = 3.
rs13031237: 	 major = 3, minor = 4.
rs6545836: 	 major = 3, minor = 1.
rs842648: 	 major = 1, minor = 3.
rs5029930: 	 major = 1, minor = 2.
rs610604: 	 major = 4, minor = 3.
rs582757: 	 major = 4, minor = 2.
rs2069763: 	 major = 2, minor = 1.
rs4833837: 	 major = 1, minor = 3.
ordenei
Malloc natural sibs Ok.
Achei um irmão natural no trio 20!
Achei um irmão natural no trio 29!
Achei um irmão natural no trio 29!
Vector1[0] = 0x1248000
Vector2[1] = 0x1247f20
Vector3[2] = 0x1247f90
Achei um irmão natural no trio 32!
Achei um irmão natural no trio 46!
Achei um irmão natural no trio 46!
Vector1[3] = 0x12493b0
Vector2[4] = 0x12492d0
Vector3[5] = 0x1249340
Achei um irmão natural no trio 116!
Achei um irmão natural no trio 116!
Vector1[6] = 0x124e7b0
Vector2[7] = 0x124e6d0
Vector3[8] = 0x124e740
Achei um irmão natural no trio 148!
Achei um irmão natural no trio 151!
Achei um irmão natural no trio 162!
Trio = 45, Child = 191, Erros mendelianos = 1
Trio = 89, Child = 518, Erros mendelianos = 1
Trio = 89, Child = 518, Erros mendelianos = 2
Trio = 89, Child = 518, Erros mendelianos = 3
Trio = 89, Child = 518, Erros mendelianos = 4
Trio = 146, Child = 935, Erros mendelianos = 1
Trio = 164, Child = 1049, Erros mendelianos = 1
Trio = 164, Child = 1049, Erros mendelianos = 2
Imprimindo matriz output.
5 7 5 6 1 2 2 1 3 2 1 1 2 2 1 3
5 1267 5 6 1 1 3 1 2 3 1 1 3 3 1 2
5 1268 5 6 1 1 0 1 0 0 1 1 0 0 1 0
5 1269 5 6 1 1 0 1 0 0 1 1 0 0 1 0
6 10 8 9 1 2 1 4 2 2 1 1 1 1 2 1
6 1270 8 9 1 1 1 3 3 3 1 1 1 1 3 1
6 1271 8 9 1 1 1 2 0 0 1 1 1 1 0 1
6 1272 8 9 1 1 1 3 0 0 1 1 1 1 0 1
7 13 11 12 2 2 2 2 4 1 2 1 3 3 2 1
7 1273 11 12 2 1 3 3 3 1 3 1 4 4 3 1
7 1274 11 12 2 1 0 0 2 1 0 1 3 3 0 1
7 1275 11 12 2 1 0 0 3 1 0 1 2 2 0 1
8 16 14 15 1 2 3 4 2 1 2 1 2 2 3 3
8 1276 14 15 1 1 2 3 3 1 3 1 3 3 2 4
8 1277 14 15 1 1 3 2 0 1 0 1 0 0 3 0
8 1278 14 15 1 1 4 3 0 1 0 1 0 0 4 0
9 19 17 18 1 2 2 3 3 2 1 2 3 3 4 3
9 1279 17 18 1 1 3 2 2 3 1 3 4 2 3 2
9 1280 17 18 1 1 0 0 0 4 1 0 3 0 2 0
9 1281 17 18 1 1 0 0 0 3 1 0 2 0 3 0
11 26 24 25 1 2 1 3 3 2 1 4 4 1 1 1
11 1282 24 25 1 1 1 2 2 3 1 3 3 1 1 1
11 1283 24 25 1 1 1 0 3 0 1 2 3 1 1 1
11 1284 24 25 1 1 1 0 4 0 1 3 2 1 1 1
14 35 33 34 1 2 1 3 3 1 1 2 2 2 1 1
14 1285 33 34 1 1 1 4 2 1 1 3 3 3 1 1
14 1286 33 34 1 1 1 0 0 1 1 0 4 0 1 1
14 1287 33 34 1 1 1 0 0 1 1 0 3 0 1 1
15 38 36 37 2 2 1 1 4 2 1 1 4 4 1 1
15 1288 36 37 2 1 1 1 3 3 1 1 3 3 1 1
15 1289 36 37 2 1 1 1 2 4 1 1 0 0 1 1
15 1290 36 37 2 1 1 1 3 3 1 1 0 0 1 1
18 44 45 46 2 2 2 2 3 2 3 1 2 2 3 3
18 1291 45 46 2 1 3 3 2 3 2 1 3 3 2 2
18 1292 45 46 2 1 3 0 0 0 0 1 0 0 0 0
18 1293 45 46 2 1 4 0 0 0 0 1 0 0 0 0
19 47 48 49 2 2 1 2 4 1 1 3 2 2 2 1
19 1294 48 49 2 1 1 3 3 1 1 2 3 3 3 1
19 1295 48 49 2 1 1 0 0 1 1 0 0 0 0 1
19 1296 48 49 2 1 1 0 0 1 1 0 0 0 0 1
21 51 52 53 2 2 1 3 3 2 1 3 4 3 1 4
21 1297 52 53 2 1 1 2 2 3 1 2 3 2 1 3
21 1298 52 53 2 1 1 3 0 0 1 3 3 0 1 0
21 1299 52 53 2 1 1 4 0 0 1 4 2 0 1 0
22 56 54 55 2 2 2 2 3 3 1 1 1 1 1 1
22 1300 54 55 2 1 3 3 2 4 1 1 1 1 1 1
22 1301 54 55 2 1 0 0 0 3 1 1 1 1 1 1
22 1302 54 55 2 1 0 0 0 2 1 1 1 1 1 1
25 59 60 61 2 2 1 3 3 1 2 1 2 2 2 1
25 1303 60 61 2 1 1 2 2 1 3 1 3 3 3 1
25 1304 60 61 2 1 1 0 3 1 0 1 4 4 0 1
25 1305 60 61 2 1 1 0 4 1 0 1 3 3 0 1
27 63 64 65 2 2 3 3 1 1 1 2 2 2 2 1
27 1306 64 65 2 1 2 4 1 1 1 3 3 3 3 1
27 1307 64 65 2 1 0 0 1 1 1 0 4 0 0 1
27 1308 64 65 2 1 0 0 1 1 1 0 3 0 0 1
29 67 68 69 2 2 2 1 1 1 1 1 3 3 3 3
29 1309 68 69 2 1 3 1 1 1 1 1 2 2 4 4
29 1310 68 69 2 1 0 1 1 1 1 1 0 0 0 0
29 1311 68 69 2 1 0 1 1 1 1 1 0 0 0 0
31 73 71 72 2 2 3 2 1 1 3 2 1 3 2 2
31 1312 71 72 2 1 2 3 1 1 2 3 1 2 3 3
31 1313 71 72 2 1 3 0 1 1 0 0 1 0 0 0
31 1314 71 72 2 1 4 0 1 1 0 0 1 0 0 0
35 80 81 82 2 2 3 1 1 1 1 1 3 3 4 3
35 1315 81 82 2 1 2 1 1 1 1 1 2 2 3 2
35 1316 81 82 2 1 3 1 1 1 1 1 0 0 0 0
35 1317 81 82 2 1 4 1 1 1 1 1 0 0 0 0
36 83 85 84 2 2 2 3 3 2 1 2 2 2 1 1
36 1318 85 84 2 1 3 2 2 3 1 3 3 3 1 1
36 1319 85 84 2 1 0 0 3 0 1 0 0 0 1 1
36 1320 85 84 2 1 0 0 4 0 1 0 0 0 1 1
41 92 90 91 1 2 1 3 3 1 1 1 2 2 4 1
41 1321 90 91 1 1 1 4 2 1 1 1 3 3 3 1
41 1322 90 91 1 1 1 0 0 1 1 1 0 0 2 1
41 1323 90 91 1 1 1 0 0 1 1 1 0 0 3 1
43 96 94 95 1 2 2 3 3 1 1 1 2 2 2 1
43 1324 94 95 1 1 3 2 4 1 1 1 3 3 3 1
43 1325 94 95 1 1 0 0 0 1 1 1 0 0 0 1
43 1326 94 95 1 1 0 0 0 1 1 1 0 0 0 1
44 97 99 100 1 2 1 4 1 2 1 1 2 2 1 1
44 1327 99 100 1 1 1 3 1 3 1 1 3 3 1 1
44 1328 99 100 1 1 1 0 1 0 1 1 4 4 1 1
44 1329 99 100 1 1 1 0 1 0 1 1 3 3 1 1
615 1266 1264 1265 2 2 3 1 2 3 1 2 2 1 3 2
615 1330 1264 1265 2 1 2 1 3 2 1 3 3 1 2 3
615 1331 1264 1265 2 1 0 1 0 0 1 0 0 1 3 0
615 1332 1264 1265 2 1 0 1 0 0 1 0 0 1 4 0
49 105 107 106 2 2 1 -1 -1 3 2 1 3 3 -1 3
49 1333 107 106 2 1 1 -1 -1 2 3 1 2 2 -1 2
49 1334 107 106 2 1 1 -1 -1 0 0 1 0 0 -1 0
49 1335 107 106 2 1 1 -1 -1 0 0 1 0 0 -1 0
50 110 108 109 2 2 3 2 2 3 3 1 3 3 2 2
50 1336 108 109 2 1 2 3 3 2 2 1 2 2 3 3
50 1337 108 109 2 1 0 0 0 0 0 1 0 0 0 0
50 1338 108 109 2 1 0 0 0 0 0 1 0 0 0 0
51 111 112 113 1 2 1 3 1 1 2 1 1 1 2 1
51 1339 112 113 1 1 1 2 1 1 3 1 1 1 3 1
51 1340 112 113 1 1 1 0 1 1 0 1 1 1 0 1
51 1341 112 113 1 1 1 0 1 1 0 1 1 1 0 1
52 116 114 115 1 2 2 3 1 3 1 1 3 2 2 1
52 1342 114 115 1 1 3 2 1 4 1 1 4 3 3 1
52 1343 114 115 1 1 0 3 1 3 1 1 0 0 0 1
52 1344 114 115 1 1 0 4 1 2 1 1 0 0 0 1
53 119 117 118 2 2 1 2 3 3 1 1 1 1 1 3
53 1345 117 118 2 1 1 3 2 4 1 1 1 1 1 2
53 1346 117 118 2 1 1 0 0 3 1 1 1 1 1 0
53 1347 117 118 2 1 1 0 0 2 1 1 1 1 1 0
54 120 121 122 2 2 4 3 3 2 1 2 2 1 2 2
54 1348 121 122 2 1 3 2 2 3 1 3 3 1 3 3
54 1349 121 122 2 1 2 0 3 0 1 0 0 1 0 3
54 1350 121 122 2 1 3 0 4 0 1 0 0 1 0 4
56 124 125 126 2 2 1 1 3 1 3 1 3 3 1 1
56 1351 125 126 2 1 1 1 4 1 2 1 2 2 1 1
56 1352 125 126 2 1 1 1 0 1 0 1 0 0 1 1
56 1353 125 126 2 1 1 1 0 1 0 1 0 0 1 1
532 1152 1150 1151 2 2 2 3 1 1 2 1 3 1 4 3
532 1354 1150 1151 2 1 3 2 1 1 3 1 4 1 3 2
532 1355 1150 1151 2 1 0 0 1 1 0 1 3 1 2 0
532 1356 1150 1151 2 1 0 0 1 1 0 1 2 1 3 0
547 1178 1176 1177 1 2 1 2 3 1 3 1 2 2 1 1
547 1357 1176 1177 1 1 1 3 2 1 2 1 3 3 1 1
547 1358 1176 1177 1 1 1 0 3 1 0 1 0 0 1 1
547 1359 1176 1177 1 1 1 0 4 1 0 1 0 0 1 1
544 1173 1171 1172 1 2 3 3 3 1 1 1 2 2 3 3
544 1360 1171 1172 1 1 2 4 2 1 1 1 3 3 2 2
544 1361 1171 1172 1 1 3 0 0 1 1 1 0 0 3 3
544 1362 1171 1172 1 1 4 0 0 1 1 1 0 0 4 4
60 138 136 137 2 2 1 3 2 -1 1 1 2 2 3 3
60 1363 136 137 2 1 1 2 3 -1 1 1 3 3 2 2
60 1364 136 137 2 1 1 0 3 -1 1 1 4 4 0 0
60 1365 136 137 2 1 1 0 4 -1 1 1 3 3 0 0
532 1152 1150 1151 2 2 2 3 1 1 2 1 3 1 4 3
532 1366 1150 1151 2 1 3 2 1 1 3 1 4 1 3 2
532 1367 1150 1151 2 1 0 0 1 1 0 1 3 1 2 0
532 1368 1150 1151 2 1 0 0 1 1 0 1 2 1 3 0
62 141 142 143 2 2 3 1 1 1 1 1 1 1 2 3
62 1369 142 143 2 1 2 1 1 1 1 1 1 1 3 2
62 1370 142 143 2 1 0 1 1 1 1 1 1 1 0 3
62 1371 142 143 2 1 0 1 1 1 1 1 1 1 0 4
63 146 144 145 1 2 -1 -1 -1 1 1 1 1 1 2 2
63 1372 144 145 1 1 -1 -1 -1 1 1 1 1 1 3 3
63 1373 144 145 1 1 -1 -1 -1 1 1 1 1 1 0 0
63 1374 144 145 1 1 -1 -1 -1 1 1 1 1 1 0 0
66 155 154 153 1 2 4 1 1 1 1 1 1 1 3 1
66 1375 154 153 1 1 3 1 1 1 1 1 1 1 2 1
66 1376 154 153 1 1 0 1 1 1 1 1 1 1 0 1
66 1377 154 153 1 1 0 1 1 1 1 1 1 1 0 1
70 165 163 164 1 2 1 3 3 1 1 1 1 1 2 2
70 1378 163 164 1 1 1 2 2 1 1 1 1 1 3 3
70 1379 163 164 1 1 1 3 3 1 1 1 1 1 0 0
70 1380 163 164 1 1 1 4 4 1 1 1 1 1 0 0
73 170 168 169 2 2 4 3 2 3 1 2 3 3 2 2
73 1381 168 169 2 1 3 2 3 2 1 3 2 2 3 3
73 1382 168 169 2 1 0 3 0 0 1 0 0 0 0 0
73 1383 168 169 2 1 0 4 0 0 1 0 0 0 0 0
74 173 171 172 1 2 -1 -1 -1 2 2 1 2 2 1 1
74 1384 171 172 1 1 -1 -1 -1 3 3 1 4 4 1 1
74 1385 171 172 1 1 -1 -1 -1 0 0 1 0 0 1 1
74 1386 171 172 1 1 -1 -1 -1 0 0 1 0 0 1 1
75 176 174 175 2 2 2 1 1 1 1 2 1 1 2 2
75 1387 174 175 2 1 3 1 1 1 1 3 1 1 3 3
75 1388 174 175 2 1 0 1 1 1 1 0 1 1 0 0
75 1389 174 175 2 1 0 1 1 1 1 0 1 1 0 0
76 179 177 178 2 2 1 3 2 3 1 1 4 4 2 1
76 1390 177 178 2 1 1 2 3 4 1 1 3 3 3 1
76 1391 177 178 2 1 1 0 0 3 1 1 3 3 0 1
76 1392 177 178 2 1 1 0 0 2 1 1 2 2 0 1
77 182 180 181 2 2 1 3 3 1 1 2 1 3 3 3
77 1393 180 181 2 1 1 2 2 1 1 3 1 2 4 4
77 1394 180 181 2 1 1 3 3 1 1 0 1 0 0 0
77 1395 180 181 2 1 1 4 4 1 1 0 1 0 0 0
78 185 183 184 2 2 3 3 3 1 1 3 1 2 1 3
78 1396 183 184 2 1 2 2 4 1 1 2 1 3 1 4
78 1397 183 184 2 1 0 0 0 1 1 0 1 0 1 0
78 1398 183 184 2 1 0 0 0 1 1 0 1 0 1 0
79 188 186 187 2 2 1 3 3 2 1 2 3 1 2 2
79 1399 186 187 2 1 1 2 2 3 1 3 4 1 3 3
79 1400 186 187 2 1 1 3 0 0 1 0 0 1 0 0
79 1401 186 187 2 1 1 4 0 0 1 0 0 1 0 0
80 191 189 190 1 2 1 0 0 0 1 0 0 -1 1 1
80 1402 189 190 1 1 1 3 3 2 1 2 3 -1 1 1
80 1403 189 190 1 1 1 0 0 0 1 0 0 -1 1 1
80 1404 189 190 1 1 1 0 0 0 1 0 0 -1 1 1
515 1106 1104 1105 2 2 3 2 3 3 1 1 2 2 1 1
515 1405 1104 1105 2 1 2 3 2 4 1 1 3 3 1 1
515 1406 1104 1105 2 1 0 0 0 3 1 1 0 0 1 1
515 1407 1104 1105 2 1 0 0 0 2 1 1 0 0 1 1
200087 206 205 204 1 2 -1 -1 -1 -1 -1 -1 -1 -1 -1 -1
200087 1408 205 204 1 1 -1 -1 -1 -1 -1 -1 -1 -1 -1 -1
200087 1409 205 204 1 1 -1 -1 -1 -1 -1 -1 -1 -1 -1 -1
200087 1410 205 204 1 1 -1 -1 -1 -1 -1 -1 -1 -1 -1 -1
523 1124 1122 1123 1 2 2 1 2 3 3 2 2 2 3 3
523 1411 1122 1123 1 1 3 1 3 2 2 3 3 3 2 2
523 1412 1122 1123 1 1 0 1 3 0 0 0 4 0 3 3
523 1413 1122 1123 1 1 0 1 4 0 0 0 3 0 4 4
521 1119 1117 1118 1 2 3 3 2 1 3 1 1 1 1 2
521 1414 1117 1118 1 1 2 2 3 1 2 1 1 1 1 3
521 1415 1117 1118 1 1 0 3 0 1 0 1 1 1 1 0
521 1416 1117 1118 1 1 0 4 0 1 0 1 1 1 1 0
89 214 212 213 2 2 3 2 3 1 1 1 2 2 1 1
89 1417 212 213 2 1 2 3 2 1 1 1 3 3 1 1
89 1418 212 213 2 1 0 0 0 1 1 1 0 0 1 1
89 1419 212 213 2 1 0 0 0 1 1 1 0 0 1 1
92 219 217 218 2 2 2 2 3 2 3 1 4 4 1 3
92 1420 217 218 2 1 3 3 2 3 2 1 3 3 1 2
92 1421 217 218 2 1 0 0 0 0 0 1 0 0 1 0
92 1422 217 218 2 1 0 0 0 0 0 1 0 0 1 0
96 229 227 228 1 2 2 1 1 1 1 1 3 3 2 2
96 1423 227 228 1 1 3 1 1 1 1 1 4 4 3 3
96 1424 227 228 1 1 0 1 1 1 1 1 0 0 0 0
96 1425 227 228 1 1 0 1 1 1 1 1 0 0 0 0
104 245 243 244 1 2 1 1 4 2 1 1 3 3 4 3
104 1426 243 244 1 1 1 1 3 3 1 1 4 4 3 2
104 1427 243 244 1 1 1 1 0 0 1 1 3 3 0 0
104 1428 243 244 1 1 1 1 0 0 1 1 2 2 0 0
106 251 249 250 2 2 1 3 3 2 1 1 3 3 3 3
106 1429 249 250 2 1 1 2 2 3 1 1 4 4 2 2
106 1430 249 250 2 1 1 3 0 0 1 1 3 3 0 3
106 1431 249 250 2 1 1 4 0 0 1 1 2 2 0 4
110 259 257 258 1 2 3 4 2 2 1 3 3 3 1 4
110 1432 257 258 1 1 2 3 3 3 1 2 2 2 1 3
110 1433 257 258 1 1 0 2 0 0 1 0 0 0 1 0
110 1434 257 258 1 1 0 3 0 0 1 0 0 0 1 0
114 265 263 264 1 2 3 4 2 1 2 2 1 1 3 4
114 1435 263 264 1 1 2 3 3 1 3 3 1 1 2 3
114 1436 263 264 1 1 3 2 0 1 0 0 1 1 0 2
114 1437 263 264 1 1 4 3 0 1 0 0 1 1 0 3
116 269 267 268 2 2 1 3 3 2 1 1 4 4 3 1
116 1438 267 268 2 1 1 2 2 3 1 1 3 3 4 1
116 1439 267 268 2 1 1 0 3 0 1 1 3 3 0 1
116 1440 267 268 2 1 1 0 4 0 1 1 2 2 0 1
118 273 271 272 1 2 3 2 2 4 1 2 3 3 2 3
118 1441 271 272 1 1 2 3 3 3 1 3 2 2 3 2
118 1442 271 272 1 1 0 0 0 3 1 0 0 0 0 3
118 1443 271 272 1 1 0 0 0 2 1 0 0 0 0 4
121 278 276 277 2 2 1 1 3 2 3 3 3 1 1 3
121 1444 276 277 2 1 1 1 2 3 2 2 2 1 1 2
121 1445 276 277 2 1 1 1 3 0 0 0 0 1 1 3
121 1446 276 277 2 1 1 1 4 0 0 0 0 1 1 4
122 281 279 280 2 2 3 4 2 1 1 3 3 1 2 2
122 1447 279 280 2 1 2 3 3 1 1 2 2 1 3 3
122 1448 279 280 2 1 3 0 0 1 1 3 0 1 0 0
122 1449 279 280 2 1 4 0 0 1 1 4 0 1 0 0
2000122 285 284 283 2 2 1 2 3 1 3 3 3 1 1 1
2000122 1450 284 283 2 1 1 3 2 1 2 2 4 1 1 1
2000122 1451 284 283 2 1 1 0 0 1 3 3 3 1 1 1
2000122 1452 284 283 2 1 1 0 0 1 4 4 2 1 1 1
127 292 290 291 1 2 4 2 1 3 3 3 4 3 1 1
127 1453 290 291 1 1 3 3 1 4 2 2 3 2 1 1
127 1454 290 291 1 1 2 0 1 3 0 0 3 0 1 1
127 1455 290 291 1 1 3 0 1 2 0 0 2 0 1 1
129 296 294 295 1 2 3 3 3 1 1 1 3 3 3 1
129 1456 294 295 1 1 2 4 2 1 1 1 4 4 4 1
129 1457 294 295 1 1 0 0 0 1 1 1 3 3 0 1
129 1458 294 295 1 1 0 0 0 1 1 1 2 2 0 1
133 308 306 307 2 2 2 3 3 1 1 1 3 3 3 1
133 1459 306 307 2 1 3 2 2 1 1 1 4 4 2 1
133 1460 306 307 2 1 0 3 3 1 1 1 3 3 0 1
133 1461 306 307 2 1 0 4 4 1 1 1 2 2 0 1
137 318 316 317 1 2 4 3 2 2 3 1 3 3 2 2
137 1462 316 317 1 1 3 2 3 3 2 1 2 2 3 3
137 1463 316 317 1 1 2 0 0 0 0 1 0 0 0 0
137 1464 316 317 1 1 3 0 0 0 0 1 0 0 0 0
139 322 320 321 2 2 1 1 3 2 3 1 2 2 1 1
139 1465 320 321 2 1 1 1 2 3 2 1 3 3 1 1
139 1466 320 321 2 1 1 1 0 0 0 1 0 0 1 1
139 1467 320 321 2 1 1 1 0 0 0 1 0 0 1 1
140 325 323 324 1 2 4 3 1 3 2 1 3 3 1 1
140 1468 323 324 1 1 3 2 1 2 3 1 2 2 1 1
140 1469 323 324 1 1 0 3 1 0 0 1 0 0 1 1
140 1470 323 324 1 1 0 4 1 0 0 1 0 0 1 1
141 328 326 327 1 2 2 1 3 1 2 1 3 2 3 3
141 1471 326 327 1 1 3 1 2 1 3 1 4 3 2 2
141 1472 326 327 1 1 0 1 0 1 0 1 0 0 3 0
141 1473 326 327 1 1 0 1 0 1 0 1 0 0 4 0
146 335 333 334 1 2 2 1 3 2 1 1 1 1 2 2
146 1474 333 334 1 1 3 1 2 3 1 1 1 1 3 3
146 1475 333 334 1 1 0 1 0 0 1 1 1 1 0 0
146 1476 333 334 1 1 0 1 0 0 1 1 1 1 0 0
149 343 341 342 1 2 1 3 1 2 1 1 1 1 2 3
149 1477 341 342 1 1 1 2 1 3 1 1 1 1 3 2
149 1478 341 342 1 1 1 0 1 0 1 1 1 1 0 0
149 1479 341 342 1 1 1 0 1 0 1 1 1 1 0 0
152 348 346 347 1 2 3 1 1 1 1 1 3 3 3 3
152 1480 346 347 1 1 2 1 1 1 1 1 4 4 2 4
152 1481 346 347 1 1 3 1 1 1 1 1 3 3 3 0
152 1482 346 347 1 1 4 1 1 1 1 1 2 2 4 0
153 351 349 350 2 2 3 3 3 1 1 2 3 3 2 3
153 1483 349 350 2 1 2 2 4 1 1 3 4 2 3 2
153 1484 349 350 2 1 3 0 0 1 1 0 3 0 0 3
153 1485 349 350 2 1 4 0 0 1 1 0 2 0 0 4
155 355 353 354 2 2 3 1 1 1 1 1 3 3 -1 3
155 1486 353 354 2 1 2 1 1 1 1 1 2 2 -1 2
155 1487 353 354 2 1 3 1 1 1 1 1 0 0 -1 0
155 1488 353 354 2 1 4 1 1 1 1 1 0 0 -1 0
156 359 357 358 2 2 -1 -1 -1 -1 -1 -1 -1 -1 -1 -1
156 1489 357 358 2 1 -1 -1 -1 -1 -1 -1 -1 -1 -1 -1
156 1490 357 358 2 1 -1 -1 -1 -1 -1 -1 -1 -1 -1 -1
156 1491 357 358 2 1 -1 -1 -1 -1 -1 -1 -1 -1 -1 -1
163 374 372 373 1 2 1 1 3 3 1 1 3 3 3 1
163 1492 372 373 1 1 1 1 2 4 1 1 4 4 2 1
163 1493 372 373 1 1 1 1 3 3 1 1 3 3 0 1
163 1494 372 373 1 1 1 1 4 2 1 1 2 2 0 1
165 378 376 377 1 2 1 2 3 3 1 3 3 1 4 4
165 1495 376 377 1 1 1 3 2 2 1 2 4 1 3 3
165 1496 376 377 1 1 1 0 3 0 1 3 3 1 0 0
165 1497 376 377 1 1 1 0 4 0 1 4 2 1 0 0
168 383 381 382 1 2 3 2 3 1 1 3 2 2 2 1
168 1498 381 382 1 1 4 3 2 1 1 2 3 3 3 1
168 1499 381 382 1 1 0 0 0 1 1 0 0 0 3 1
168 1500 381 382 1 1 0 0 0 1 1 0 0 0 4 1
169 386 384 385 1 2 3 4 2 1 1 2 2 2 3 3
169 1501 384 385 1 1 2 3 3 1 1 3 3 3 2 2
169 1502 384 385 1 1 0 0 0 1 1 0 0 0 0 3
169 1503 384 385 1 1 0 0 0 1 1 0 0 0 0 4
177 402 399 400 2 2 1 3 1 2 1 1 3 3 1 1
177 1504 399 400 2 1 1 2 1 3 1 1 2 2 1 1
177 1505 399 400 2 1 1 0 1 0 1 1 0 0 1 1
177 1506 399 400 2 1 1 0 1 0 1 1 0 0 1 1
2000177 403 401 402 2 2 4 4 2 1 1 1 2 2 1 1
2000177 1507 401 402 2 1 3 3 3 1 1 1 3 3 1 1
2000177 1508 401 402 2 1 2 2 3 1 1 1 0 0 1 1
2000177 1509 401 402 2 1 3 3 4 1 1 1 0 0 1 1
189 423 421 422 2 2 3 2 3 3 2 1 2 2 1 1
189 1510 421 422 2 1 4 3 2 2 3 1 3 3 1 1
189 1511 421 422 2 1 0 0 0 0 0 1 0 0 1 1
189 1512 421 422 2 1 0 0 0 0 0 1 0 0 1 1
190 426 424 425 1 2 1 1 4 1 2 2 3 3 3 1
190 1513 424 425 1 1 1 1 3 1 3 3 2 2 2 1
190 1514 424 425 1 1 1 1 0 1 0 0 0 0 3 1
190 1515 424 425 1 1 1 1 0 1 0 0 0 0 4 1
192 431 429 430 2 2 2 2 3 1 1 1 3 3 4 3
192 1516 429 430 2 1 3 3 2 1 1 1 2 2 3 2
192 1517 429 430 2 1 0 0 0 1 1 1 0 0 0 0
192 1518 429 430 2 1 0 0 0 1 1 1 0 0 0 0
202 455 453 454 1 2 1 1 4 2 2 1 3 3 3 1
202 1519 453 454 1 1 1 1 3 3 3 1 4 4 2 1
202 1520 453 454 1 1 1 1 2 0 0 1 0 0 0 1
202 1521 453 454 1 1 1 1 3 0 0 1 0 0 0 1
222 495 493 494 2 2 4 4 2 1 2 1 2 2 1 1
222 1522 493 494 2 1 3 3 3 1 3 1 3 3 1 1
222 1523 493 494 2 1 2 2 0 1 0 1 0 0 1 1
222 1524 493 494 2 1 3 3 0 1 0 1 0 0 1 1
223 498 496 497 1 2 2 1 1 1 1 1 2 2 3 3
223 1525 496 497 1 1 3 1 1 1 1 1 3 3 2 2
223 1526 496 497 1 1 0 1 1 1 1 1 0 0 0 0
223 1527 496 497 1 1 0 1 1 1 1 1 0 0 0 0
224 501 499 500 2 2 2 3 3 1 1 3 1 2 3 3
224 1528 499 500 2 1 3 2 4 1 1 2 1 3 2 2
224 1529 499 500 2 1 0 0 0 1 1 0 1 0 3 3
224 1530 499 500 2 1 0 0 0 1 1 0 1 0 4 4
225 504 502 503 2 2 1 2 1 4 1 1 3 3 3 1
225 1531 502 503 2 1 1 3 1 3 1 1 2 2 2 1
225 1532 502 503 2 1 1 0 1 0 1 1 0 0 3 1
225 1533 502 503 2 1 1 0 1 0 1 1 0 0 4 1
231 518 516 517 1 2 -1 -1 0 0 1 0 -1 0 -1 1
231 1534 516 517 1 1 -1 -1 3 2 1 2 -1 3 -1 1
231 1535 516 517 1 1 -1 -1 0 0 1 0 -1 0 -1 1
231 1536 516 517 1 1 -1 -1 0 0 1 0 -1 0 -1 1
242 543 541 542 2 2 1 4 2 1 1 3 3 2 2 2
242 1537 541 542 2 1 1 3 3 1 1 2 4 3 3 3
242 1538 541 542 2 1 1 0 0 1 1 3 0 0 0 0
242 1539 541 542 2 1 1 0 0 1 1 4 0 0 0 0
249 552 550 551 2 2 2 1 2 3 1 1 2 2 2 2
249 1540 550 551 2 1 3 1 3 4 1 1 3 3 3 3
249 1541 550 551 2 1 0 1 0 3 1 1 0 0 0 0
249 1542 550 551 2 1 0 1 0 2 1 1 0 0 0 0
252 557 555 556 2 2 1 3 1 1 2 1 3 3 3 1
252 1543 555 556 2 1 1 2 1 1 3 1 4 4 2 1
252 1544 555 556 2 1 1 0 1 1 0 1 3 3 0 1
252 1545 555 556 2 1 1 0 1 1 0 1 2 2 0 1
2000257 564 562 563 2 2 -1 -1 -1 -1 1 1 1 1 0 0
2000257 1546 562 563 2 1 -1 -1 -1 -1 1 1 1 1 3 3
2000257 1547 562 563 2 1 -1 -1 -1 -1 1 1 1 1 0 0
2000257 1548 562 563 2 1 -1 -1 -1 -1 1 1 1 1 0 0
260 571 569 570 2 2 3 3 1 2 1 3 3 1 3 3
260 1549 569 570 2 1 2 2 1 3 1 2 2 1 2 2
260 1550 569 570 2 1 0 0 1 0 1 0 0 1 3 3
260 1551 569 570 2 1 0 0 1 0 1 0 0 1 4 4
261 574 572 573 1 2 2 3 3 2 1 1 2 2 2 3
261 1552 572 573 1 1 3 2 2 3 1 1 3 3 3 4
261 1553 572 573 1 1 3 3 0 0 1 1 0 0 0 0
261 1554 572 573 1 1 4 4 0 0 1 1 0 0 0 0
265 582 580 581 1 2 1 2 3 1 1 1 3 3 1 1
265 1555 580 581 1 1 1 3 2 1 1 1 2 2 1 1
265 1556 580 581 1 1 1 3 0 1 1 1 0 0 1 1
265 1557 580 581 1 1 1 4 0 1 1 1 0 0 1 1
267 586 584 585 2 2 1 1 2 3 1 3 3 1 3 2
267 1558 584 585 2 1 1 1 3 2 1 2 2 1 2 3
267 1559 584 585 2 1 1 1 0 0 1 0 0 1 3 0
267 1560 584 585 2 1 1 1 0 0 1 0 0 1 4 0
269 592 590 591 2 2 -1 -1 -1 -1 -1 -1 -1 -1 -1 -1
269 1561 590 591 2 1 -1 -1 -1 -1 -1 -1 -1 -1 -1 -1
269 1562 590 591 2 1 -1 -1 -1 -1 -1 -1 -1 -1 -1 -1
269 1563 590 591 2 1 -1 -1 -1 -1 -1 -1 -1 -1 -1 -1
273 601 599 600 2 2 -1 -1 -1 -1 -1 -1 -1 -1 -1 -1
273 1564 599 600 2 1 -1 -1 -1 -1 -1 -1 -1 -1 -1 -1
273 1565 599 600 2 1 -1 -1 -1 -1 -1 -1 -1 -1 -1 -1
273 1566 599 600 2 1 -1 -1 -1 -1 -1 -1 -1 -1 -1 -1
274 604 602 603 2 2 4 3 1 2 1 1 1 1 1 1
274 1567 602 603 2 1 3 2 1 3 1 1 1 1 1 1
274 1568 602 603 2 1 2 0 1 0 1 1 1 1 1 1
274 1569 602 603 2 1 3 0 1 0 1 1 1 1 1 1
275 607 605 606 1 2 1 1 2 3 1 1 3 3 3 1
275 1570 605 606 1 1 1 1 3 2 1 1 2 2 2 1
275 1571 605 606 1 1 1 1 0 0 1 1 0 0 0 1
275 1572 605 606 1 1 1 1 0 0 1 1 0 0 0 1
277 611 609 610 2 2 1 3 3 2 2 1 1 1 3 3
277 1573 609 610 2 1 1 2 2 3 3 1 1 1 2 2
277 1574 609 610 2 1 1 0 0 0 0 1 1 1 0 0
277 1575 609 610 2 1 1 0 0 0 0 1 1 1 0 0
285 627 625 626 1 2 1 3 3 1 2 2 2 2 2 2
285 1576 625 626 1 1 1 2 2 1 3 3 3 3 3 3
285 1577 625 626 1 1 1 3 0 1 0 0 4 0 0 0
285 1578 625 626 1 1 1 4 0 1 0 0 3 0 0 0
286 630 628 629 2 2 1 3 1 3 2 3 1 3 2 2
286 1579 628 629 2 1 1 2 1 4 3 2 1 4 3 3
286 1580 628 629 2 1 1 0 1 3 0 0 1 0 0 0
286 1581 628 629 2 1 1 0 1 2 0 0 1 0 0 0
292 644 642 643 2 2 1 3 3 2 1 2 3 1 1 1
292 1582 642 643 2 1 1 2 2 3 1 3 4 1 1 1
292 1583 642 643 2 1 1 0 3 0 1 0 0 1 1 1
292 1584 642 643 2 1 1 0 4 0 1 0 0 1 1 1
298 658 656 657 1 2 3 1 4 2 1 1 1 1 1 1
298 1585 656 657 1 1 2 1 3 3 1 1 1 1 1 1
298 1586 656 657 1 1 3 1 2 4 1 1 1 1 1 1
298 1587 656 657 1 1 4 1 3 3 1 1 1 1 1 1
299 661 659 660 2 2 3 2 2 1 3 1 1 1 4 2
299 1588 659 660 2 1 2 3 3 1 2 1 1 1 3 3
299 1589 659 660 2 1 0 0 0 1 0 1 1 1 0 0
299 1590 659 660 2 1 0 0 0 1 0 1 1 1 0 0
300 664 662 663 1 2 4 4 2 1 1 2 3 3 2 1
300 1591 662 663 1 1 3 3 3 1 1 3 4 4 3 1
300 1592 662 663 1 1 0 0 0 1 1 0 0 3 3 1
300 1593 662 663 1 1 0 0 0 1 1 0 0 2 4 1
304 674 672 673 2 2 3 1 3 1 2 1 1 1 2 2
304 1594 672 673 2 1 4 1 2 1 3 1 1 1 3 3
304 1595 672 673 2 1 0 1 0 1 0 1 1 1 0 0
304 1596 672 673 2 1 0 1 0 1 0 1 1 1 0 0
305 677 675 676 2 2 2 3 2 1 3 1 3 3 3 3
305 1597 675 676 2 1 3 2 3 1 2 1 4 4 2 2
305 1598 675 676 2 1 3 3 0 1 0 1 3 3 0 0
305 1599 675 676 2 1 4 4 0 1 0 1 2 2 0 0
306 680 678 679 1 2 2 2 4 2 1 1 1 1 2 2
306 1600 678 679 1 1 3 3 3 3 1 1 1 1 3 3
306 1601 678 679 1 1 0 0 2 0 1 1 1 1 0 3
306 1602 678 679 1 1 0 0 3 0 1 1 1 1 0 4
311 691 689 690 2 2 1 3 1 3 1 1 3 3 2 2
311 1603 689 690 2 1 1 4 1 2 1 1 2 2 3 3
311 1604 689 690 2 1 1 0 1 0 1 1 0 0 0 0
311 1605 689 690 2 1 1 0 1 0 1 1 0 0 0 0
313 695 693 694 2 2 1 1 3 3 1 1 3 3 3 1
313 1606 693 694 2 1 1 1 2 4 1 1 4 4 2 1
313 1607 693 694 2 1 1 1 0 0 1 1 3 3 0 1
313 1608 693 694 2 1 1 1 0 0 1 1 2 2 0 1
314 698 696 697 2 2 4 3 3 1 1 1 2 2 1 3
314 1609 696 697 2 1 3 2 2 1 1 1 3 3 1 2
314 1610 696 697 2 1 0 3 3 1 1 1 0 0 1 3
314 1611 696 697 2 1 0 4 4 1 1 1 0 0 1 4
2000315 703 701 702 1 2 3 1 2 1 3 3 3 1 1 1
2000315 1612 701 702 1 1 2 1 3 1 2 2 2 1 1 1
2000315 1613 701 702 1 1 0 1 0 1 0 0 0 1 1 1
2000315 1614 701 702 1 1 0 1 0 1 0 0 0 1 1 1
501 1080 1078 1079 2 2 1 1 1 2 3 1 3 3 -1 2
501 1615 1078 1079 2 1 1 1 1 3 2 1 4 4 -1 3
501 1616 1078 1079 2 1 1 1 1 0 0 1 0 0 -1 0
501 1617 1078 1079 2 1 1 1 1 0 0 1 0 0 -1 0
515 1106 1104 1105 2 2 3 2 3 3 1 1 2 2 1 1
515 1618 1104 1105 2 1 2 3 2 4 1 1 3 3 1 1
515 1619 1104 1105 2 1 0 0 0 3 1 1 0 0 1 1
515 1620 1104 1105 2 1 0 0 0 2 1 1 0 0 1 1
2001315 707 705 706 1 2 1 2 2 3 3 1 3 3 1 4
2001315 1621 705 706 1 1 1 3 3 2 2 1 2 2 1 3
2001315 1622 705 706 1 1 1 0 0 0 0 1 0 0 1 2
2001315 1623 705 706 1 1 1 0 0 0 0 1 0 0 1 3
513 1100 1098 1099 2 2 2 1 1 2 3 1 3 3 2 1
513 1624 1098 1099 2 1 3 1 1 3 2 1 2 2 3 1
513 1625 1098 1099 2 1 0 1 1 0 0 1 0 0 0 1
513 1626 1098 1099 2 1 0 1 1 0 0 1 0 0 0 1
316 711 709 710 2 2 4 3 1 2 1 1 4 4 2 1
316 1627 709 710 2 1 3 2 1 3 1 1 3 3 3 1
316 1628 709 710 2 1 2 0 1 0 1 1 0 0 0 1
316 1629 709 710 2 1 3 0 1 0 1 1 0 0 0 1
318 715 713 714 1 2 3 2 4 1 1 3 1 2 3 1
318 1630 713 714 1 1 2 3 3 1 1 2 1 3 2 1
318 1631 713 714 1 1 0 0 0 1 1 0 1 0 0 1
318 1632 713 714 1 1 0 0 0 1 1 0 1 0 0 1
319 718 716 717 1 2 3 3 3 2 1 1 3 3 3 4
319 1633 716 717 1 1 2 2 2 3 1 1 2 2 2 3
319 1634 716 717 1 1 0 0 0 4 1 1 0 0 0 0
319 1635 716 717 1 1 0 0 0 3 1 1 0 0 0 0
320 721 719 720 2 2 1 3 1 2 3 3 1 3 1 1
320 1636 719 720 2 1 1 2 1 3 2 2 1 4 1 1
320 1637 719 720 2 1 1 0 1 0 3 3 1 3 1 1
320 1638 719 720 2 1 1 0 1 0 4 4 1 2 1 1
325 730 728 729 2 2 3 2 1 3 1 1 1 1 2 2
325 1639 728 729 2 1 2 3 1 2 1 1 1 1 3 3
325 1640 728 729 2 1 3 0 1 0 1 1 1 1 0 0
325 1641 728 729 2 1 4 0 1 0 1 1 1 1 0 0
334 757 755 756 1 2 3 2 2 4 1 1 2 2 3 3
334 1642 755 756 1 1 2 3 3 3 1 1 3 3 2 4
334 1643 755 756 1 1 3 0 0 3 1 1 0 0 0 0
334 1644 755 756 1 1 4 0 0 2 1 1 0 0 0 0
337 766 764 765 1 2 3 1 4 2 1 1 1 1 1 1
337 1645 764 765 1 1 2 1 3 3 1 1 1 1 1 1
337 1646 764 765 1 1 0 1 0 0 1 1 1 1 1 1
337 1647 764 765 1 1 0 1 0 0 1 1 1 1 1 1
338 769 767 768 2 2 3 4 2 2 1 1 3 3 3 2
338 1648 767 768 2 1 2 3 3 3 1 1 2 2 2 3
338 1649 767 768 2 1 3 2 0 0 1 1 0 0 0 0
338 1650 767 768 2 1 4 3 0 0 1 1 0 0 0 0
344 783 781 782 1 2 1 1 3 3 1 2 2 1 2 2
344 1651 781 782 1 1 1 1 4 2 1 3 3 1 3 3
344 1652 781 782 1 1 1 1 0 0 1 0 0 1 3 3
344 1653 781 782 1 1 1 1 0 0 1 0 0 1 4 4
352 797 795 796 2 2 1 3 1 3 1 1 1 1 2 2
352 1654 795 796 2 1 1 4 1 2 1 1 1 1 3 3
352 1655 795 796 2 1 1 0 1 0 1 1 1 1 3 0
352 1656 795 796 2 1 1 0 1 0 1 1 1 1 4 0
356 807 805 806 2 2 3 2 1 1 4 1 2 2 1 3
356 1657 805 806 2 1 2 3 1 1 3 1 3 3 1 2
356 1658 805 806 2 1 0 0 1 1 0 1 0 0 1 3
356 1659 805 806 2 1 0 0 1 1 0 1 0 0 1 4
358 811 809 810 2 2 1 4 2 1 1 2 1 1 2 2
358 1660 809 810 2 1 1 3 3 1 1 3 1 1 3 3
358 1661 809 810 2 1 1 2 3 1 1 0 1 1 3 0
358 1662 809 810 2 1 1 3 4 1 1 0 1 1 4 0
360 815 813 814 2 2 1 4 2 1 1 4 4 1 3 1
360 1663 813 814 2 1 1 3 3 1 1 3 3 1 2 1
360 1664 813 814 2 1 1 0 0 1 1 2 3 1 0 1
360 1665 813 814 2 1 1 0 0 1 1 3 2 1 0 1
2000360 817 816 815 2 2 4 1 2 3 1 1 1 1 2 2
2000360 1666 816 815 2 1 3 1 3 2 1 1 1 1 3 3
2000360 1667 816 815 2 1 2 1 0 0 1 1 1 1 3 0
2000360 1668 816 815 2 1 3 1 0 0 1 1 1 1 4 0
372 831 829 830 1 2 1 3 3 1 2 1 2 2 3 1
372 1669 829 830 1 1 1 2 2 1 3 1 3 3 2 1
372 1670 829 830 1 1 1 3 0 1 0 1 0 0 3 1
372 1671 829 830 1 1 1 4 0 1 0 1 0 0 4 1
374 835 833 834 2 2 1 3 3 2 1 1 3 3 3 1
374 1672 833 834 2 1 1 2 2 3 1 1 2 2 2 1
374 1673 833 834 2 1 1 0 3 0 1 1 0 0 3 1
374 1674 833 834 2 1 1 0 4 0 1 1 0 0 4 1
375 838 836 837 1 2 3 1 1 1 1 1 1 1 3 1
375 1675 836 837 1 1 2 1 1 1 1 1 1 1 4 1
375 1676 836 837 1 1 0 1 1 1 1 1 1 1 0 1
375 1677 836 837 1 1 0 1 1 1 1 1 1 1 0 1
391 858 856 857 1 2 1 4 1 1 2 1 2 2 3 2
391 1678 856 857 1 1 1 3 1 1 3 1 3 3 2 3
391 1679 856 857 1 1 1 0 1 1 0 1 0 0 0 0
391 1680 856 857 1 1 1 0 1 1 0 1 0 0 0 0
392 861 859 860 1 2 1 3 3 1 1 3 2 2 4 3
392 1681 859 860 1 1 1 2 2 1 1 2 3 3 3 2
392 1682 859 860 1 1 1 3 3 1 1 3 0 0 0 0
392 1683 859 860 1 1 1 4 4 1 1 4 0 0 0 0
393 864 862 863 1 2 2 1 4 1 2 1 3 3 2 2
393 1684 862 863 1 1 3 1 3 1 3 1 4 4 3 3
393 1685 862 863 1 1 0 1 2 1 3 1 0 0 0 0
393 1686 862 863 1 1 0 1 3 1 4 1 0 0 0 0
405 876 877 878 1 2 3 1 3 3 1 1 2 2 1 3
405 1687 877 878 1 1 4 1 2 4 1 1 3 3 1 2
405 1688 877 878 1 1 0 1 0 0 1 1 0 0 1 0
405 1689 877 878 1 1 0 1 0 0 1 1 0 0 1 0
407 880 881 882 2 2 2 4 2 1 2 1 3 3 3 3
407 1690 881 882 2 1 3 3 3 1 3 1 2 2 4 4
407 1691 881 882 2 1 0 2 0 1 0 1 0 0 0 0
407 1692 881 882 2 1 0 3 0 1 0 1 0 0 0 0
426 907 905 906 2 2 1 3 3 1 1 1 -1 3 3 3
426 1693 905 906 2 1 1 2 2 1 1 1 -1 2 2 2
426 1694 905 906 2 1 1 3 3 1 1 1 -1 0 0 0
426 1695 905 906 2 1 1 4 4 1 1 1 -1 0 0 0
432 917 915 916 1 2 1 1 1 1 1 1 2 2 3 1
432 1696 915 916 1 1 1 1 1 1 1 1 3 3 2 1
432 1697 915 916 1 1 1 1 1 1 1 1 0 0 3 1
432 1698 915 916 1 1 1 1 1 1 1 1 0 0 4 1
436 923 921 922 1 2 1 1 1 3 3 2 2 1 2 2
436 1699 921 922 1 1 1 1 1 4 2 3 3 1 3 3
436 1700 921 922 1 1 1 1 1 0 0 0 0 1 3 3
436 1701 921 922 1 1 1 1 1 0 0 0 0 1 4 4
437 926 924 925 2 2 1 3 3 1 1 3 1 3 1 3
437 1702 924 925 2 1 1 2 4 1 1 2 1 2 1 2
437 1703 924 925 2 1 1 0 0 1 1 3 1 0 1 0
437 1704 924 925 2 1 1 0 0 1 1 4 1 0 1 0
442 935 933 934 2 2 1 0 1 1 0 0 0 2 0 -1
442 1705 933 934 2 1 1 4 1 1 2 2 3 3 2 -1
442 1706 933 934 2 1 1 0 1 1 0 0 0 0 0 -1
442 1707 933 934 2 1 1 0 1 1 0 0 0 0 0 -1
443 938 936 937 2 2 1 3 1 1 1 1 3 3 3 1
443 1708 936 937 2 1 1 2 1 1 1 1 2 2 2 1
443 1709 936 937 2 1 1 0 1 1 1 1 0 0 0 1
443 1710 936 937 2 1 1 0 1 1 1 1 0 0 0 1
444 942 939 940 2 2 2 4 2 1 1 1 3 3 3 4
444 1711 939 940 2 1 3 3 3 1 1 1 2 2 4 3
444 1712 939 940 2 1 3 0 0 1 1 1 0 0 0 0
444 1713 939 940 2 1 4 0 0 1 1 1 0 0 0 0
501 1080 1078 1079 2 2 1 1 1 2 3 1 3 3 -1 2
501 1714 1078 1079 2 1 1 1 1 3 2 1 4 4 -1 3
501 1715 1078 1079 2 1 1 1 1 0 0 1 0 0 -1 0
501 1716 1078 1079 2 1 1 1 1 0 0 1 0 0 -1 0
2000444 944 941 942 2 2 1 4 3 1 1 1 2 2 4 4
2000444 1717 941 942 2 1 1 3 2 1 1 1 3 3 3 3
2000444 1718 941 942 2 1 1 0 0 1 1 1 0 0 2 0
2000444 1719 941 942 2 1 1 0 0 1 1 1 0 0 3 0
446 950 948 949 2 2 3 3 3 2 1 1 1 1 3 3
446 1720 948 949 2 1 2 2 2 3 1 1 1 1 2 2
446 1721 948 949 2 1 3 0 0 0 1 1 1 1 3 3
446 1722 948 949 2 1 4 0 0 0 1 1 1 1 4 4
497 1071 1069 1070 2 2 2 2 3 1 1 1 3 3 1 1
497 1723 1069 1070 2 1 3 3 2 1 1 1 4 4 1 1
497 1724 1069 1070 2 1 0 0 0 1 1 1 3 3 1 1
497 1725 1069 1070 2 1 0 0 0 1 1 1 2 2 1 1
454 967 965 966 2 2 2 2 4 1 1 2 2 2 3 3
454 1726 965 966 2 1 3 3 3 1 1 3 3 3 2 2
454 1727 965 966 2 1 0 0 0 1 1 0 4 0 0 0
454 1728 965 966 2 1 0 0 0 1 1 0 3 0 0 0
455 970 968 969 1 2 2 4 1 2 1 1 3 3 2 2
455 1729 968 969 1 1 3 3 1 3 1 1 2 2 3 3
455 1730 968 969 1 1 0 0 1 0 1 1 0 0 0 0
455 1731 968 969 1 1 0 0 1 0 1 1 0 0 0 0
457 974 972 973 2 2 3 2 3 3 1 1 3 3 3 3
457 1732 972 973 2 1 2 3 2 4 1 1 2 2 4 4
457 1733 972 973 2 1 0 0 0 3 1 1 0 0 0 0
457 1734 972 973 2 1 0 0 0 2 1 1 0 0 0 0
459 982 980 981 1 2 -1 3 1 2 3 1 3 3 2 1
459 1735 980 981 1 1 -1 2 1 3 2 1 2 2 3 1
459 1736 980 981 1 1 -1 0 1 4 0 1 0 0 0 1
459 1737 980 981 1 1 -1 0 1 3 0 1 0 0 0 1
460 985 983 984 2 2 3 3 1 1 3 1 2 2 3 3
460 1738 983 984 2 1 2 4 1 1 2 1 3 3 2 2
460 1739 983 984 2 1 0 0 1 1 0 1 0 0 0 0
460 1740 983 984 2 1 0 0 1 1 0 1 0 0 0 0
466 997 995 996 2 2 1 2 1 4 1 1 3 3 4 4
466 1741 995 996 2 1 1 3 1 3 1 1 4 4 3 3
466 1742 995 996 2 1 1 0 1 0 1 1 3 3 2 2
466 1743 995 996 2 1 1 0 1 0 1 1 2 2 3 3
467 1001 999 1000 2 2 1 3 1 3 1 1 1 1 2 2
467 1744 999 1000 2 1 1 4 1 2 1 1 1 1 3 3
467 1745 999 1000 2 1 1 0 1 0 1 1 1 1 0 0
467 1746 999 1000 2 1 1 0 1 0 1 1 1 1 0 0
479 1023 1021 1022 1 2 2 3 3 1 1 1 2 2 1 3
479 1747 1021 1022 1 1 3 2 2 1 1 1 3 3 1 2
479 1748 1021 1022 1 1 3 3 0 1 1 1 0 0 1 0
479 1749 1021 1022 1 1 4 4 0 1 1 1 0 0 1 0
485 1037 1035 1036 2 2 3 3 1 2 3 1 4 4 2 1
485 1750 1035 1036 2 1 2 2 1 3 2 1 3 3 3 1
485 1751 1035 1036 2 1 0 0 1 0 3 1 3 3 0 1
485 1752 1035 1036 2 1 0 0 1 0 4 1 2 2 0 1
486 1045 1043 1044 1 2 3 2 3 -1 1 1 -1 -1 2 1
486 1753 1043 1044 1 1 2 3 2 -1 1 1 -1 -1 3 1
486 1754 1043 1044 1 1 0 0 3 -1 1 1 -1 -1 0 1
486 1755 1043 1044 1 1 0 0 4 -1 1 1 -1 -1 0 1
491 1057 1055 1056 1 2 3 3 3 2 1 2 1 3 1 3
491 1756 1055 1056 1 1 2 2 2 3 1 3 1 2 1 2
491 1757 1055 1056 1 1 0 0 0 0 1 0 1 0 1 0
491 1758 1055 1056 1 1 0 0 0 0 1 0 1 0 1 0
487 1049 1047 1048 2 2 3 3 1 0 2 2 2 0 -1 -1
487 1759 1047 1048 2 1 2 2 1 3 3 3 3 3 -1 -1
487 1760 1047 1048 2 1 3 3 1 0 0 0 4 0 -1 -1
487 1761 1047 1048 2 1 4 4 1 0 0 0 3 0 -1 -1
488 1052 1050 1051 2 2 2 2 3 3 2 2 3 3 3 3
0 0 0 0 0 0 0 0 0 0 0 0 0 0 0 0
0 0 0 0 0 0 0 0 0 0 0 0 0 0 0 0
0 0 0 0 0 0 0 0 0 0 0 0 0 0 0 0
0 0 0 0 0 0 0 0 0 0 0 0 0 0 0 0
0 0 0 0 0 0 0 0 0 0 0 0 0 0 0 0
0 0 0 0 0 0 0 0 0 0 0 0 0 0 0 0
0 0 0 0 0 0 0 0 0 0 0 0 0 0 0 0
0 0 0 0 0 0 0 0 0 0 0 0 0 0 0 0
Fiz free de tudo.
